6W8I_chainD_ligand_molecule2
                    3D
 Schrodinger Suite 2023-4.
 38 41  0  0  1  0            999 V2000
  -24.5240  -31.9550   23.1930 C   0  0  0  0  0  0
  -25.8180  -32.5470   23.7710 C   0  0  1  0  0  0
  -27.0030  -27.4330   20.2310 C   0  0  0  0  0  0
  -25.5740  -33.9570   24.0270 N   0  0  0  0  0  0
  -23.3420  -30.5610   21.5990 C   0  0  2  0  0  0
  -24.7460  -29.0670   20.1480 C   0  0  0  0  0  0
  -22.7020  -29.5340   22.5380 C   0  0  0  0  0  0
  -18.0670  -28.2900   22.9310 C   0  0  0  0  0  0
  -24.4450  -36.9350   23.1030 C   0  0  0  0  0  0
  -25.8890  -30.8510   21.4790 C   0  0  0  0  0  0
  -25.8960  -29.4970   20.8190 C   0  0  0  0  0  0
  -27.0150  -28.6690   20.8620 C   0  0  0  0  0  0
  -25.8690  -27.0070   19.5610 C   0  0  0  0  0  0
  -24.7520  -27.8240   19.5200 C   0  0  0  0  0  0
  -23.5380  -29.9690   20.1930 C   0  0  0  0  0  0
  -25.5930  -36.3860   23.9400 C   0  0  1  0  0  0
  -20.6000  -28.4180   23.2000 C   0  0  2  0  0  0
  -20.6650  -26.9670   22.7310 C   0  0  0  0  0  0
  -19.5750  -26.6640   21.7040 C   0  0  0  0  0  0
  -18.1890  -26.9250   22.2880 C   0  0  0  0  0  0
  -19.2020  -28.9680   23.4080 C   0  0  0  0  0  0
  -19.0340  -30.2020   24.0420 C   0  0  0  0  0  0
  -17.7800  -30.7700   24.1660 C   0  0  0  0  0  0
  -26.0470  -35.0360   23.3910 C   0  0  0  0  0  0
  -16.6690  -30.1150   23.6810 C   0  0  0  0  0  0
  -16.8130  -28.8750   23.0710 C   0  0  0  0  0  0
  -26.3880  -31.8000   25.0160 C   0  0  0  0  0  0
  -25.2730  -31.3060   25.9380 C   0  0  0  0  0  0
  -27.2160  -30.5940   24.5740 C   0  0  0  0  0  0
  -27.3000  -32.7270   25.8230 C   0  0  0  0  0  0
  -27.4160  -37.4010   25.2150 C   0  0  0  0  0  0
  -21.4070  -29.2630   22.3180 N   0  0  0  0  0  0
  -26.7060  -37.3420   23.9380 N   0  0  0  0  0  0
  -24.5930  -31.1490   22.1120 N   0  0  0  0  0  0
  -23.3520  -29.0310   23.4520 O   0  0  0  0  0  0
  -26.8150  -34.9710   22.4350 O   0  0  0  0  0  0
  -23.4550  -32.2320   23.7140 O   0  0  0  0  0  0
  -27.8791  -26.8022   20.2623 H   0  0  0  0  0  0
  1  2  1  0  0  0
  1 34  1  0  0  0
  1 37  2  0  0  0
  2  4  1  0  0  0
  2 27  1  0  0  0
  3 12  2  0  0  0
  3 13  1  0  0  0
  3 38  1  0  0  0
  4 24  1  0  0  0
  5  7  1  0  0  0
  5 15  1  0  0  0
  5 34  1  0  0  0
  6 11  2  0  0  0
  6 14  1  0  0  0
  6 15  1  0  0  0
  7 32  1  0  0  0
  7 35  2  0  0  0
  8 20  1  0  0  0
  8 21  1  0  0  0
  8 26  2  0  0  0
  9 16  1  0  0  0
 10 11  1  0  0  0
 10 34  1  0  0  0
 11 12  1  0  0  0
 13 14  2  0  0  0
 16 24  1  0  0  0
 16 33  1  0  0  0
 17 18  1  0  0  0
 17 21  1  0  0  0
 17 32  1  0  0  0
 18 19  1  0  0  0
 19 20  1  0  0  0
 21 22  2  0  0  0
 22 23  1  0  0  0
 23 25  2  0  0  0
 24 36  2  0  0  0
 25 26  1  0  0  0
 27 28  1  0  0  0
 27 29  1  0  0  0
 27 30  1  0  0  0
 31 33  1  0  0  0
M  END
$$$$
