6W8I_chainD_ligand_molecule
                    3D
 Schrodinger Suite 2023-4.
 34 37  0  0  1  0            999 V2000
  -30.6860  -14.4610   20.4800 C   0  0  0  0  0  0
  -30.3990  -12.3800   19.2120 C   0  0  0  0  0  0
  -29.4180  -12.5770   18.0710 C   0  0  0  0  0  0
  -27.9810  -12.3790   18.5530 C   0  0  0  0  0  0
  -27.6870  -13.2220   19.7950 C   0  0  2  0  0  0
  -28.7300  -13.0010   20.8760 C   0  0  0  0  0  0
  -25.3490  -13.7920   20.5880 C   0  0  0  0  0  0
  -24.2310  -13.0350   20.9860 C   0  0  0  0  0  0
  -24.6750  -11.6680   20.9180 C   0  0  0  0  0  0
  -23.9190  -10.4090   21.0930 C   0  0  0  0  0  0
  -24.3610   -9.4000   21.9530 C   0  0  0  0  0  0
  -23.6030   -8.2550   22.1510 C   0  0  0  0  0  0
  -22.3950   -8.1040   21.4800 C   0  0  0  0  0  0
  -21.9660   -9.0790   20.5930 C   0  0  0  0  0  0
  -22.7190  -10.2260   20.4110 C   0  0  0  0  0  0
  -21.6200   -6.0870   22.6610 C   0  0  0  0  0  0
  -21.3160   -6.3350   23.9940 C   0  0  0  0  0  0
  -21.3930   -5.3140   24.9300 C   0  0  0  0  0  0
  -21.7860   -4.0670   24.5060 C   0  0  0  0  0  0
  -22.1000   -3.7750   23.1990 C   0  0  0  0  0  0
  -22.0010   -4.8070   22.2990 C   0  0  0  0  0  0
  -22.9100  -13.5710   21.3390 C   0  0  0  0  0  0
  -22.2530   -4.5620   20.9940 F   0  0  0  0  0  0
  -21.8720   -3.0680   25.4260 F   0  0  0  0  0  0
  -30.0640  -13.2720   20.3300 N   0  0  0  0  0  0
  -26.3390  -12.9210   20.3180 N   0  0  0  0  0  0
  -25.9440  -11.6120   20.5320 N   0  0  0  0  0  0
  -22.2350  -12.9870   22.3200 N   0  0  0  0  0  0
  -25.4670  -15.1250   20.4670 N   0  0  0  0  0  0
  -30.2360  -15.1240   21.5580 O   0  0  0  0  0  0
  -31.5440  -14.8730   19.7340 O   0  0  0  0  0  0
  -21.4770   -7.0680   21.6880 O   0  0  0  0  0  0
  -22.4450  -14.5400   20.7200 O   0  0  0  0  0  0
  -30.6978  -15.9621   21.6346 H   0  0  0  0  0  0
  1 25  1  0  0  0
  1 30  1  0  0  0
  1 31  2  0  0  0
  2  3  1  0  0  0
  2 25  1  0  0  0
  3  4  1  0  0  0
  4  5  1  0  0  0
  5  6  1  0  0  0
  5 26  1  0  0  0
  6 25  1  0  0  0
  7  8  2  0  0  0
  7 26  1  0  0  0
  7 29  1  0  0  0
  8  9  1  0  0  0
  8 22  1  0  0  0
  9 10  1  0  0  0
  9 27  2  0  0  0
 10 11  2  0  0  0
 10 15  1  0  0  0
 11 12  1  0  0  0
 12 13  2  0  0  0
 13 14  1  0  0  0
 13 32  1  0  0  0
 14 15  2  0  0  0
 16 17  1  0  0  0
 16 21  2  0  0  0
 16 32  1  0  0  0
 17 18  2  0  0  0
 18 19  1  0  0  0
 19 20  2  0  0  0
 19 24  1  0  0  0
 20 21  1  0  0  0
 21 23  1  0  0  0
 22 28  1  0  0  0
 22 33  2  0  0  0
 26 27  1  0  0  0
 30 34  1  0  0  0
M  END
$$$$
