7KHH_chainC_ligand_molecule
                    3D
 Schrodinger Suite 2023-4.
 36 38  0  0  1  0            999 V2000
    4.0700   -8.0850  -19.8310 C   0  0  0  0  0  0
    7.4160   -4.9350  -16.7500 C   0  0  0  0  0  0
    6.8950   -6.2390  -16.8680 C   0  0  0  0  0  0
    5.7550   -6.4890  -17.6320 C   0  0  0  0  0  0
    8.6260   -4.6630  -15.8600 C   0  0  0  0  0  0
    8.3100   -5.3870  -14.6310 N   0  0  0  0  0  0
    9.0690   -6.3470  -14.0880 C   0  0  0  0  0  0
   10.1230   -6.6150  -14.6020 O   0  0  0  0  0  0
    8.5430   -7.0930  -12.8750 C   0  0  2  0  0  0
    7.4590   -6.9820  -12.8630 H   0  0  0  0  0  0
    9.0850   -6.5480  -11.5420 C   0  0  0  0  0  0
    3.4280   -6.7190  -19.8090 C   0  0  0  0  0  0
    9.2120   -7.8320  -10.6650 C   0  0  2  0  0  0
    9.9800   -7.7050   -9.9020 H   0  0  0  0  0  0
    9.6540   -8.8630  -11.7250 C   0  0  0  0  0  0
    8.8540   -8.5340  -12.9190 N   0  0  0  0  0  0
    8.4410   -9.3920  -13.8800 C   0  0  0  0  0  0
    7.7510   -8.9300  -14.7730 O   0  0  0  0  0  0
    8.7700  -10.8820  -13.8640 C   0  0  2  0  0  0
    8.9630  -11.2150  -12.8450 H   0  0  0  0  0  0
   10.0100  -11.2490  -14.7290 C   0  0  0  0  0  0
   10.2420  -12.7640  -14.6650 C   0  0  0  0  0  0
    3.8990   -5.6210  -19.1500 C   0  0  0  0  0  0
    9.8030  -10.8560  -16.1960 C   0  0  0  0  0  0
   11.3020  -10.5810  -14.2470 C   0  0  0  0  0  0
    7.5610  -11.5800  -14.3710 N   0  0  0  0  0  0
    6.8200  -12.4650  -13.6570 C   0  0  0  0  0  0
    7.1090  -12.7430  -12.5110 O   0  0  0  0  0  0
    2.7590   -4.3090  -19.4700 S   0  0  0  0  0  0
    1.7900   -5.3280  -20.4380 C   0  0  0  0  0  0
    2.3080   -6.5100  -20.4750 N   0  0  0  0  0  0
    5.1170   -5.4380  -18.3100 C   0  0  0  0  0  0
    5.6360   -4.1330  -18.1700 C   0  0  0  0  0  0
    7.9790   -8.2540  -10.0640 O   0  0  0  0  0  0
    6.7690   -3.8830  -17.3990 C   0  0  0  0  0  0
    5.9578  -12.9344  -14.1072 H   0  0  0  0  0  0
  1 12  1  0  0  0
  2  3  1  0  0  0
  2  5  1  0  0  0
  2 35  2  0  0  0
  3  4  2  0  0  0
  4 32  1  0  0  0
  5  6  1  0  0  0
  6  7  1  0  0  0
  7  8  2  0  0  0
  7  9  1  0  0  0
  9 10  1  0  0  0
  9 11  1  0  0  0
  9 16  1  0  0  0
 11 13  1  0  0  0
 12 23  2  0  0  0
 12 31  1  0  0  0
 13 14  1  0  0  0
 13 15  1  0  0  0
 13 34  1  0  0  0
 15 16  1  0  0  0
 16 17  1  0  0  0
 17 18  2  0  0  0
 17 19  1  0  0  0
 19 20  1  0  0  0
 19 21  1  0  0  0
 19 26  1  0  0  0
 21 22  1  0  0  0
 21 24  1  0  0  0
 21 25  1  0  0  0
 23 29  1  0  0  0
 23 32  1  0  0  0
 26 27  1  0  0  0
 27 28  2  0  0  0
 27 36  1  0  0  0
 29 30  1  0  0  0
 30 31  2  0  0  0
 32 33  2  0  0  0
 33 35  1  0  0  0
M  END
$$$$
