protac.smi:1
                    3D
 Schrodinger Suite 2023-4.
144151  0  0  1  0            999 V2000
    0.4174   11.0023   -3.1603 C   0  0  0  0  0  0
    1.3381   10.2129   -4.0699 C   0  0  0  0  0  0
    1.0098    9.2782   -5.0672 C   0  0  0  0  0  0
    2.5003    8.6579   -5.7427 S   0  0  0  0  0  0
    3.3691    9.6947   -4.6713 C   0  0  0  0  0  0
    2.6289   10.4250   -3.8820 N   0  0  0  0  0  0
   -0.3130    8.7922   -5.5690 C   0  0  0  0  0  0
   -0.4960    7.4513   -5.9250 C   0  0  0  0  0  0
   -1.7416    7.0006   -6.3505 C   0  0  0  0  0  0
   -2.8172    7.8875   -6.4227 C   0  0  0  0  0  0
   -2.6324    9.2342   -6.1049 C   0  0  0  0  0  0
   -1.3863    9.6822   -5.6753 C   0  0  0  0  0  0
   -4.1876    7.3813   -6.8592 C   0  0  0  0  0  0
   -4.8414    6.5730   -5.8307 N   0  0  0  0  0  0
   -5.3483    7.0552   -4.6817 C   0  0  0  0  0  0
   -5.3991    8.2587   -4.4181 O   0  0  0  0  0  0
   -5.7614    6.0026   -3.6264 C   0  0  2  0  0  0
   -7.0623    6.3474   -2.8876 C   0  0  0  0  0  0
   -6.6336    7.0844   -1.6255 C   0  0  2  0  0  0
   -5.2454    6.5296   -1.2926 C   0  0  0  0  0  0
   -4.7563    5.9362   -2.5460 N   0  0  0  0  0  0
   -3.5744    5.2714   -2.6706 C   0  0  0  0  0  0
   -3.2545    4.6781   -3.7043 O   0  0  0  0  0  0
   -2.5315    5.3224   -1.5093 C   0  0  2  0  0  0
   -1.2984    6.2657   -1.8002 C   0  0  0  0  0  0
   -0.4777    6.4335   -0.4942 C   0  0  0  0  0  0
   -1.7340    7.6867   -2.2479 C   0  0  0  0  0  0
   -0.3343    5.6796   -2.8677 C   0  0  0  0  0  0
   -2.1042    3.9624   -1.1496 N   0  0  0  0  0  0
   -2.8691    3.0126   -0.5794 C   0  0  0  0  0  0
   -4.0465    3.2013   -0.2729 O   0  0  0  0  0  0
   -2.2391    1.6347   -0.3078 C   0  0  0  0  0  0
   -0.6987    1.5580   -0.4389 C   0  0  0  0  0  0
   -0.1491    0.1444   -0.1804 C   0  0  0  0  0  0
    1.3876    0.0780   -0.2456 C   0  0  0  0  0  0
    1.9334   -1.3511   -0.0779 C   0  0  0  0  0  0
    3.4714   -1.4107   -0.0741 C   0  0  0  0  0  0
    4.0143   -2.8483    0.0099 C   0  0  0  0  0  0
    5.5504   -2.9091    0.0857 C   0  0  0  0  0  0
    6.0896   -4.3505    0.0986 C   0  0  0  0  0  0
    7.6158   -4.4227    0.2689 C   0  0  0  0  0  0
    8.0997   -5.8016    0.2741 N   0  0  0  0  0  0
    9.1440   -6.2722   -0.4331 C   0  0  0  0  0  0
    9.8510   -5.5661   -1.1531 O   0  0  0  0  0  0
    9.3982   -7.7569   -0.2908 C   0  0  0  0  0  0
    9.3980   -8.3220    0.9891 C   0  0  0  0  0  0
    9.6112   -9.6914    1.2316 C   0  0  0  0  0  0
    9.8797  -10.5328    0.1143 C   0  0  0  0  0  0
    9.8671   -9.9569   -1.1671 C   0  0  0  0  0  0
    9.6221   -8.6023   -1.3926 C   0  0  0  0  0  0
    9.5902   -8.1293   -2.8492 C   0  0  0  0  0  0
    7.8330   -8.0358   -3.5508 S   0  0  0  0  0  0
    6.9728   -7.3355   -2.5911 O   0  0  0  0  0  0
    7.9287   -7.5479   -4.9302 O   0  0  0  0  0  0
    7.2764   -9.8360   -3.6201 C   0  0  0  0  0  0
   10.2206  -11.9939    0.2176 C   0  0  0  0  0  0
   10.9720  -12.6511   -0.7008 C   0  0  0  0  0  0
   11.2715  -13.9988   -0.7297 N   0  0  0  0  0  0
   10.6941  -14.9137    0.1348 C   0  0  0  0  0  0
   10.8149  -16.1372    0.0331 O   0  0  0  0  0  0
    9.9547  -14.2258    1.1905 C   0  0  0  0  0  0
    9.7018  -12.8485    1.2745 C   0  0  0  0  0  0
    8.9783  -12.5723    2.4336 C   0  0  0  0  0  0
    8.7400  -13.8090    3.0232 C   0  0  0  0  0  0
    9.3286  -14.7918    2.2698 N   0  0  0  0  0  0
    8.5679  -11.1990    2.8805 C   0  0  0  0  0  0
    9.5663  -10.1645    2.5673 N   0  0  0  0  0  0
    9.8940   -9.3249    3.6478 C   0  0  0  0  0  0
    8.9367   -8.6566    4.4367 C   0  0  0  0  0  0
    9.3748   -7.7942    5.4438 C   0  0  0  0  0  0
   10.7422   -7.5969    5.6332 C   0  0  0  0  0  0
   11.6346   -8.2680    4.7987 C   0  0  0  0  0  0
   11.2285   -9.1097    3.8144 N   0  0  0  0  0  0
   11.1928   -6.7650    6.5991 F   0  0  0  0  0  0
    7.6084   -8.8123    4.2252 F   0  0  0  0  0  0
   12.1428  -14.5395   -1.7828 C   0  0  0  0  0  0
   -7.5851    7.0213   -0.5839 O   0  0  0  0  0  0
   -0.6092   10.6394   -3.1843 H   0  0  0  0  0  0
    0.3888   12.0570   -3.4354 H   0  0  0  0  0  0
    0.7307   10.9511   -2.1166 H   0  0  0  0  0  0
    4.4485    9.7215   -4.6670 H   0  0  0  0  0  0
    0.3172    6.7444   -5.8506 H   0  0  0  0  0  0
   -1.8754    5.9580   -6.6003 H   0  0  0  0  0  0
   -3.4565    9.9301   -6.1698 H   0  0  0  0  0  0
   -1.2624   10.7260   -5.4267 H   0  0  0  0  0  0
   -4.8303    8.2080   -7.1690 H   0  0  0  0  0  0
   -4.0591    6.7538   -7.7421 H   0  0  0  0  0  0
   -4.7792    5.5718   -5.9446 H   0  0  0  0  0  0
   -5.8174    5.0449   -4.1478 H   0  0  0  0  0  0
   -7.7910    6.8899   -3.4928 H   0  0  0  0  0  0
   -7.5659    5.4161   -2.6216 H   0  0  0  0  0  0
   -6.5301    8.1343   -1.9043 H   0  0  0  0  0  0
   -4.6020    7.3180   -0.9002 H   0  0  0  0  0  0
   -5.3564    5.7450   -0.5422 H   0  0  0  0  0  0
   -3.0098    5.7087   -0.6101 H   0  0  0  0  0  0
    0.3764    7.0967   -0.6412 H   0  0  0  0  0  0
   -0.0781    5.4845   -0.1343 H   0  0  0  0  0  0
   -1.0794    6.8649    0.3071 H   0  0  0  0  0  0
   -2.3475    8.1775   -1.4917 H   0  0  0  0  0  0
   -2.2990    7.6736   -3.1807 H   0  0  0  0  0  0
   -0.8697    8.3284   -2.4225 H   0  0  0  0  0  0
    0.4813    6.3704   -3.0874 H   0  0  0  0  0  0
   -0.8359    5.4818   -3.8136 H   0  0  0  0  0  0
    0.1272    4.7487   -2.5364 H   0  0  0  0  0  0
   -1.1471    3.7399   -1.3808 H   0  0  0  0  0  0
   -2.5277    1.3301    0.6996 H   0  0  0  0  0  0
   -2.7008    0.9248   -0.9954 H   0  0  0  0  0  0
   -0.3926    1.8716   -1.4389 H   0  0  0  0  0  0
   -0.2376    2.2547    0.2639 H   0  0  0  0  0  0
   -0.4826   -0.2031    0.7988 H   0  0  0  0  0  0
   -0.5756   -0.5448   -0.9110 H   0  0  0  0  0  0
    1.7296    0.4826   -1.1996 H   0  0  0  0  0  0
    1.8086    0.7223    0.5281 H   0  0  0  0  0  0
    1.5548   -1.7785    0.8519 H   0  0  0  0  0  0
    1.5473   -1.9787   -0.8827 H   0  0  0  0  0  0
    3.8569   -0.9332   -0.9764 H   0  0  0  0  0  0
    3.8510   -0.8277    0.7664 H   0  0  0  0  0  0
    3.5925   -3.3458    0.8848 H   0  0  0  0  0  0
    3.6704   -3.4135   -0.8579 H   0  0  0  0  0  0
    5.9795   -2.3725   -0.7620 H   0  0  0  0  0  0
    5.8866   -2.3860    0.9823 H   0  0  0  0  0  0
    5.6117   -4.9071    0.9066 H   0  0  0  0  0  0
    5.8042   -4.8490   -0.8296 H   0  0  0  0  0  0
    8.0885   -3.8223   -0.5116 H   0  0  0  0  0  0
    7.9113   -3.9383    1.2006 H   0  0  0  0  0  0
    7.6203   -6.4372    0.8949 H   0  0  0  0  0  0
    9.2093   -7.6665    1.8274 H   0  0  0  0  0  0
   10.0295  -10.5804   -2.0337 H   0  0  0  0  0  0
   10.0568   -7.1568   -2.9865 H   0  0  0  0  0  0
   10.1445   -8.8148   -3.4909 H   0  0  0  0  0  0
    6.2790   -9.8782   -4.0566 H   0  0  0  0  0  0
    7.2569  -10.2403   -2.6086 H   0  0  0  0  0  0
    7.9775  -10.3999   -4.2345 H   0  0  0  0  0  0
   11.3988  -12.1582   -1.5625 H   0  0  0  0  0  0
    8.2082  -14.0707    3.9261 H   0  0  0  0  0  0
    9.3137  -15.7795    2.4816 H   0  0  0  0  0  0
    7.6196  -10.9222    2.4168 H   0  0  0  0  0  0
    8.3651  -11.2352    3.9525 H   0  0  0  0  0  0
    8.6598   -7.2744    6.0643 H   0  0  0  0  0  0
   12.7004   -8.1323    4.9085 H   0  0  0  0  0  0
   12.4503  -15.5744   -1.6247 H   0  0  0  0  0  0
   13.0552  -13.9456   -1.8467 H   0  0  0  0  0  0
   11.6399  -14.4833   -2.7486 H   0  0  0  0  0  0
   -7.1813    7.3567    0.2199 H   0  0  0  0  0  0
  1  2  1  0  0  0
  1 78  1  0  0  0
  1 79  1  0  0  0
  1 80  1  0  0  0
  2  3  2  0  0  0
  2  6  1  0  0  0
  3  4  1  0  0  0
  3  7  1  0  0  0
  4  5  1  0  0  0
  5  6  2  0  0  0
  5 81  1  0  0  0
  7  8  2  0  0  0
  7 12  1  0  0  0
  8  9  1  0  0  0
  8 82  1  0  0  0
  9 10  2  0  0  0
  9 83  1  0  0  0
 10 11  1  0  0  0
 10 13  1  0  0  0
 11 12  2  0  0  0
 11 84  1  0  0  0
 12 85  1  0  0  0
 13 14  1  0  0  0
 13 86  1  0  0  0
 13 87  1  0  0  0
 14 15  1  0  0  0
 14 88  1  0  0  0
 15 16  2  0  0  0
 15 17  1  0  0  0
 17 18  1  0  0  0
 17 21  1  0  0  0
 17 89  1  0  0  0
 18 19  1  0  0  0
 18 90  1  0  0  0
 18 91  1  0  0  0
 19 20  1  0  0  0
 19 77  1  0  0  0
 19 92  1  0  0  0
 20 21  1  0  0  0
 20 93  1  0  0  0
 20 94  1  0  0  0
 21 22  1  0  0  0
 22 23  2  0  0  0
 22 24  1  0  0  0
 24 25  1  0  0  0
 24 29  1  0  0  0
 24 95  1  0  0  0
 25 26  1  0  0  0
 25 27  1  0  0  0
 25 28  1  0  0  0
 26 96  1  0  0  0
 26 97  1  0  0  0
 26 98  1  0  0  0
 27 99  1  0  0  0
 27100  1  0  0  0
 27101  1  0  0  0
 28102  1  0  0  0
 28103  1  0  0  0
 28104  1  0  0  0
 29 30  1  0  0  0
 29105  1  0  0  0
 30 31  2  0  0  0
 30 32  1  0  0  0
 32 33  1  0  0  0
 32106  1  0  0  0
 32107  1  0  0  0
 33 34  1  0  0  0
 33108  1  0  0  0
 33109  1  0  0  0
 34 35  1  0  0  0
 34110  1  0  0  0
 34111  1  0  0  0
 35 36  1  0  0  0
 35112  1  0  0  0
 35113  1  0  0  0
 36 37  1  0  0  0
 36114  1  0  0  0
 36115  1  0  0  0
 37 38  1  0  0  0
 37116  1  0  0  0
 37117  1  0  0  0
 38 39  1  0  0  0
 38118  1  0  0  0
 38119  1  0  0  0
 39 40  1  0  0  0
 39120  1  0  0  0
 39121  1  0  0  0
 40 41  1  0  0  0
 40122  1  0  0  0
 40123  1  0  0  0
 41 42  1  0  0  0
 41124  1  0  0  0
 41125  1  0  0  0
 42 43  1  0  0  0
 42126  1  0  0  0
 43 44  2  0  0  0
 43 45  1  0  0  0
 45 46  2  0  0  0
 45 50  1  0  0  0
 46 47  1  0  0  0
 46127  1  0  0  0
 47 48  2  0  0  0
 47 67  1  0  0  0
 48 49  1  0  0  0
 48 56  1  0  0  0
 49 50  2  0  0  0
 49128  1  0  0  0
 50 51  1  0  0  0
 51 52  1  0  0  0
 51129  1  0  0  0
 51130  1  0  0  0
 52 53  2  0  0  0
 52 54  2  0  0  0
 52 55  1  0  0  0
 55131  1  0  0  0
 55132  1  0  0  0
 55133  1  0  0  0
 56 57  2  0  0  0
 56 62  1  0  0  0
 57 58  1  0  0  0
 57134  1  0  0  0
 58 59  1  0  0  0
 58 76  1  0  0  0
 59 60  2  0  0  0
 59 61  1  0  0  0
 61 62  2  0  0  0
 61 65  1  0  0  0
 62 63  1  0  0  0
 63 64  2  0  0  0
 63 66  1  0  0  0
 64 65  1  0  0  0
 64135  1  0  0  0
 65136  1  0  0  0
 66 67  1  0  0  0
 66137  1  0  0  0
 66138  1  0  0  0
 67 68  1  0  0  0
 68 69  2  0  0  0
 68 73  1  0  0  0
 69 70  1  0  0  0
 69 75  1  0  0  0
 70 71  2  0  0  0
 70139  1  0  0  0
 71 72  1  0  0  0
 71 74  1  0  0  0
 72 73  2  0  0  0
 72140  1  0  0  0
 76141  1  0  0  0
 76142  1  0  0  0
 76143  1  0  0  0
 77144  1  0  0  0
M  END
$$$$
