protac.smi:1
                    3D
 Schrodinger Suite 2023-4.
137144  0  0  1  0            999 V2000
   -3.2743   -3.8622    7.5434 C   0  0  0  0  0  0
   -4.0414   -3.4023    8.7656 C   0  0  0  0  0  0
   -4.8985   -2.2978    8.9032 C   0  0  0  0  0  0
   -5.5358   -2.3026   10.5325 S   0  0  0  0  0  0
   -4.6030   -3.7202   10.8477 C   0  0  0  0  0  0
   -3.8937   -4.1552    9.8417 N   0  0  0  0  0  0
   -5.2908   -1.2250    7.9380 C   0  0  0  0  0  0
   -6.6049   -0.7476    7.8899 C   0  0  0  0  0  0
   -6.9568    0.2533    6.9887 C   0  0  0  0  0  0
   -5.9972    0.7948    6.1309 C   0  0  0  0  0  0
   -4.6836    0.3150    6.1724 C   0  0  0  0  0  0
   -4.3338   -0.6880    7.0720 C   0  0  0  0  0  0
   -6.4097    1.8792    5.1327 C   0  0  0  0  0  0
   -5.7759    1.8040    3.8141 N   0  0  0  0  0  0
   -5.9335    0.7988    2.9346 C   0  0  0  0  0  0
   -6.6996   -0.1495    3.1199 O   0  0  0  0  0  0
   -5.1138    0.8969    1.6284 C   0  0  2  0  0  0
   -5.9964    0.9332    0.3601 C   0  0  0  0  0  0
   -5.3007    0.0104   -0.6324 C   0  0  2  0  0  0
   -4.6979   -1.0630    0.2834 C   0  0  0  0  0  0
   -4.2454   -0.2862    1.4461 N   0  0  0  0  0  0
   -3.0709   -0.4466    2.1145 C   0  0  0  0  0  0
   -2.6676    0.3758    2.9416 O   0  0  0  0  0  0
   -2.2363   -1.7520    1.9278 C   0  0  2  0  0  0
   -2.2794   -2.7342    3.1624 C   0  0  0  0  0  0
   -1.5199   -4.0451    2.8304 C   0  0  0  0  0  0
   -3.7449   -3.1205    3.4988 C   0  0  0  0  0  0
   -1.6310   -2.1266    4.4362 C   0  0  0  0  0  0
   -0.8600   -1.4061    1.5431 N   0  0  0  0  0  0
   -0.4910   -0.8812    0.3613 C   0  0  0  0  0  0
   -1.2775   -0.6863   -0.5664 O   0  0  0  0  0  0
    0.9898   -0.5125    0.2030 C   0  0  0  0  0  0
    1.1685    0.9882    0.0001 C   0  0  0  0  0  0
    1.3161    1.8297    1.1061 C   0  0  0  0  0  0
    1.4522    3.2032    0.9236 C   0  0  0  0  0  0
    1.4282    3.7435   -0.3646 C   0  0  0  0  0  0
    1.2681    2.9019   -1.4697 C   0  0  0  0  0  0
    1.1372    1.5284   -1.2880 C   0  0  0  0  0  0
    1.5889    5.2495   -0.5618 C   0  0  0  0  0  0
    2.5936    5.6310   -1.5567 N   0  0  0  0  0  0
    3.9252    5.4637   -1.4278 C   0  0  0  0  0  0
    4.4411    5.0331   -0.3935 O   0  0  0  0  0  0
    4.7753    5.8145   -2.6335 C   0  0  0  0  0  0
    6.1599    5.6011   -2.5942 C   0  0  0  0  0  0
    6.9559    5.8932   -3.6985 C   0  0  0  0  0  0
    6.3907    6.4037   -4.8715 C   0  0  0  0  0  0
    5.0109    6.6295   -4.9086 C   0  0  0  0  0  0
    4.2117    6.3406   -3.8067 C   0  0  0  0  0  0
    7.2367    6.6910   -6.0643 C   0  0  0  0  0  0
    8.4874    7.2993   -5.9347 C   0  0  0  0  0  0
    9.2719    7.5631   -7.0543 C   0  0  0  0  0  0
    8.8361    7.2412   -8.3473 C   0  0  0  0  0  0
    7.5791    6.6047   -8.4874 C   0  0  0  0  0  0
    6.8004    6.3466   -7.3471 C   0  0  0  0  0  0
    7.1251    6.2069   -9.7610 N   0  0  0  0  0  0
    5.8649    6.2795  -10.2485 C   0  0  0  0  0  0
    4.8985    6.6970   -9.6088 O   0  0  0  0  0  0
    5.7389    5.8417  -11.6274 C   0  0  0  0  0  0
    6.2755    4.6611  -12.0263 C   0  0  0  0  0  0
    6.1657    4.1406  -13.2837 N   0  0  0  0  0  0
    5.4688    4.7557  -14.2759 C   0  0  0  0  0  0
    4.9258    6.0605  -13.9043 C   0  0  0  0  0  0
    5.0158    6.6233  -12.6625 C   0  0  0  0  0  0
    4.4310    8.0233  -12.4023 C   0  0  0  0  0  0
    4.1070    8.6429  -13.5396 F   0  0  0  0  0  0
    3.3301    7.9217  -11.6581 F   0  0  0  0  0  0
    5.3217    8.7896  -11.7704 F   0  0  0  0  0  0
    5.3054    4.2379  -15.3777 O   0  0  0  0  0  0
    9.6825    7.5602   -9.4116 N   0  0  0  0  0  0
    9.2216    8.0210  -10.7343 C   0  0  0  0  0  0
   10.1815    9.0046  -11.4365 C   0  0  0  0  0  0
   11.5755    8.3594  -11.5449 N   0  3  0  0  0  0
   12.0686    8.0324  -10.1234 C   0  0  0  0  0  0
   11.0694    7.0632   -9.4568 C   0  0  0  0  0  0
   12.5593    9.3077  -12.2572 C   0  0  0  0  0  0
   -4.2606    0.7141   -1.2920 O   0  0  0  0  0  0
   -3.5958   -3.3475    6.6394 H   0  0  0  0  0  0
   -3.4086   -4.9274    7.3501 H   0  0  0  0  0  0
   -2.2035   -3.6859    7.6494 H   0  0  0  0  0  0
   -4.6201   -4.2004   11.8146 H   0  0  0  0  0  0
   -7.3628   -1.1550    8.5431 H   0  0  0  0  0  0
   -7.9778    0.6051    6.9608 H   0  0  0  0  0  0
   -3.9298    0.7174    5.5111 H   0  0  0  0  0  0
   -3.3119   -1.0364    7.0987 H   0  0  0  0  0  0
   -7.4934    1.8859    4.9983 H   0  0  0  0  0  0
   -6.1481    2.8446    5.5667 H   0  0  0  0  0  0
   -5.1311    2.5470    3.5870 H   0  0  0  0  0  0
   -4.5075    1.8002    1.7223 H   0  0  0  0  0  0
   -6.9864    0.5100    0.5448 H   0  0  0  0  0  0
   -6.1588    1.9424   -0.0212 H   0  0  0  0  0  0
   -5.9564   -0.4128   -1.3941 H   0  0  0  0  0  0
   -5.5019   -1.7370    0.5823 H   0  0  0  0  0  0
   -3.9394   -1.6182   -0.2668 H   0  0  0  0  0  0
   -2.6280   -2.3290    1.0936 H   0  0  0  0  0  0
   -1.5539   -4.7502    3.6623 H   0  0  0  0  0  0
   -0.4656   -3.8649    2.6166 H   0  0  0  0  0  0
   -1.9524   -4.5522    1.9667 H   0  0  0  0  0  0
   -4.2529   -3.5564    2.6374 H   0  0  0  0  0  0
   -4.3323   -2.2643    3.8337 H   0  0  0  0  0  0
   -3.7898   -3.8584    4.3006 H   0  0  0  0  0  0
   -1.5801   -2.8591    5.2427 H   0  0  0  0  0  0
   -2.2003   -1.2851    4.8299 H   0  0  0  0  0  0
   -0.6111   -1.7865    4.2539 H   0  0  0  0  0  0
   -0.1629   -1.5401    2.2608 H   0  0  0  0  0  0
    1.5628   -0.8341    1.0751 H   0  0  0  0  0  0
    1.3923   -1.0588   -0.6514 H   0  0  0  0  0  0
    1.3257    1.4208    2.1062 H   0  0  0  0  0  0
    1.5742    3.8435    1.7854 H   0  0  0  0  0  0
    1.2455    3.3101   -2.4698 H   0  0  0  0  0  0
    1.0078    0.8862   -2.1471 H   0  0  0  0  0  0
    0.6313    5.6409   -0.9068 H   0  0  0  0  0  0
    1.8047    5.7498    0.3846 H   0  0  0  0  0  0
    2.2383    5.9750   -2.4365 H   0  0  0  0  0  0
    6.6349    5.1974   -1.7110 H   0  0  0  0  0  0
    8.0181    5.7051   -3.6409 H   0  0  0  0  0  0
    4.5470    7.0310   -5.7981 H   0  0  0  0  0  0
    3.1510    6.5280   -3.8886 H   0  0  0  0  0  0
    8.8575    7.5807   -4.9593 H   0  0  0  0  0  0
   10.2262    8.0483   -6.9058 H   0  0  0  0  0  0
    5.8517    5.8396   -7.4474 H   0  0  0  0  0  0
    7.8537    6.0632  -10.4442 H   0  0  0  0  0  0
    6.8074    3.9772  -11.3784 H   0  0  0  0  0  0
    4.4202    6.5944  -14.6955 H   0  0  0  0  0  0
    6.5420    3.2300  -13.5039 H   0  0  0  0  0  0
    9.0775    7.1505  -11.3762 H   0  0  0  0  0  0
    8.2433    8.4934  -10.6340 H   0  0  0  0  0  0
    9.8601    9.2153  -12.4576 H   0  0  0  0  0  0
   10.2889    9.9447  -10.8914 H   0  0  0  0  0  0
   13.0538    7.5774  -10.2357 H   0  0  0  0  0  0
   12.1659    8.9735   -9.5782 H   0  0  0  0  0  0
   11.0682    6.1192  -10.0043 H   0  0  0  0  0  0
   11.4216    6.8122   -8.4558 H   0  0  0  0  0  0
   12.6327   10.2275  -11.6744 H   0  0  0  0  0  0
   12.1596    9.4947  -13.2548 H   0  0  0  0  0  0
   13.5178    8.7900  -12.3145 H   0  0  0  0  0  0
   -3.8455    1.3061   -0.6605 H   0  0  0  0  0  0
   11.4967    7.4987  -12.0685 H   0  0  0  0  0  0
  1  2  1  0  0  0
  1 77  1  0  0  0
  1 78  1  0  0  0
  1 79  1  0  0  0
  2  3  2  0  0  0
  2  6  1  0  0  0
  3  4  1  0  0  0
  3  7  1  0  0  0
  4  5  1  0  0  0
  5  6  2  0  0  0
  5 80  1  0  0  0
  7  8  2  0  0  0
  7 12  1  0  0  0
  8  9  1  0  0  0
  8 81  1  0  0  0
  9 10  2  0  0  0
  9 82  1  0  0  0
 10 11  1  0  0  0
 10 13  1  0  0  0
 11 12  2  0  0  0
 11 83  1  0  0  0
 12 84  1  0  0  0
 13 14  1  0  0  0
 13 85  1  0  0  0
 13 86  1  0  0  0
 14 15  1  0  0  0
 14 87  1  0  0  0
 15 16  2  0  0  0
 15 17  1  0  0  0
 17 18  1  0  0  0
 17 21  1  0  0  0
 17 88  1  0  0  0
 18 19  1  0  0  0
 18 89  1  0  0  0
 18 90  1  0  0  0
 19 20  1  0  0  0
 19 76  1  0  0  0
 19 91  1  0  0  0
 20 21  1  0  0  0
 20 92  1  0  0  0
 20 93  1  0  0  0
 21 22  1  0  0  0
 22 23  2  0  0  0
 22 24  1  0  0  0
 24 25  1  0  0  0
 24 29  1  0  0  0
 24 94  1  0  0  0
 25 26  1  0  0  0
 25 27  1  0  0  0
 25 28  1  0  0  0
 26 95  1  0  0  0
 26 96  1  0  0  0
 26 97  1  0  0  0
 27 98  1  0  0  0
 27 99  1  0  0  0
 27100  1  0  0  0
 28101  1  0  0  0
 28102  1  0  0  0
 28103  1  0  0  0
 29 30  1  0  0  0
 29104  1  0  0  0
 30 31  2  0  0  0
 30 32  1  0  0  0
 32 33  1  0  0  0
 32105  1  0  0  0
 32106  1  0  0  0
 33 34  2  0  0  0
 33 38  1  0  0  0
 34 35  1  0  0  0
 34107  1  0  0  0
 35 36  2  0  0  0
 35108  1  0  0  0
 36 37  1  0  0  0
 36 39  1  0  0  0
 37 38  2  0  0  0
 37109  1  0  0  0
 38110  1  0  0  0
 39 40  1  0  0  0
 39111  1  0  0  0
 39112  1  0  0  0
 40 41  1  0  0  0
 40113  1  0  0  0
 41 42  2  0  0  0
 41 43  1  0  0  0
 43 44  2  0  0  0
 43 48  1  0  0  0
 44 45  1  0  0  0
 44114  1  0  0  0
 45 46  2  0  0  0
 45115  1  0  0  0
 46 47  1  0  0  0
 46 49  1  0  0  0
 47 48  2  0  0  0
 47116  1  0  0  0
 48117  1  0  0  0
 49 50  2  0  0  0
 49 54  1  0  0  0
 50 51  1  0  0  0
 50118  1  0  0  0
 51 52  2  0  0  0
 51119  1  0  0  0
 52 53  1  0  0  0
 52 69  1  0  0  0
 53 54  2  0  0  0
 53 55  1  0  0  0
 54120  1  0  0  0
 55 56  1  0  0  0
 55121  1  0  0  0
 56 57  2  0  0  0
 56 58  1  0  0  0
 58 59  2  0  0  0
 58 63  1  0  0  0
 59 60  1  0  0  0
 59122  1  0  0  0
 60 61  1  0  0  0
 60124  1  0  0  0
 61 68  2  0  0  0
 61 62  1  0  0  0
 62 63  2  0  0  0
 62123  1  0  0  0
 63 64  1  0  0  0
 64 65  1  0  0  0
 64 66  1  0  0  0
 64 67  1  0  0  0
 69 70  1  0  0  0
 69 74  1  0  0  0
 70 71  1  0  0  0
 70125  1  0  0  0
 70126  1  0  0  0
 71 72  1  0  0  0
 71127  1  0  0  0
 71128  1  0  0  0
 72 73  1  0  0  0
 72 75  1  0  0  0
 72137  1  0  0  0
 73 74  1  0  0  0
 73129  1  0  0  0
 73130  1  0  0  0
 74131  1  0  0  0
 74132  1  0  0  0
 75133  1  0  0  0
 75134  1  0  0  0
 75135  1  0  0  0
 76136  1  0  0  0
M  CHG  1  72   1
M  END
$$$$
