protac.smi:1
                    3D
 Schrodinger Suite 2023-4.
109115  0  0  1  0            999 V2000
   -5.3637    4.4574   -7.4882 C   0  0  0  0  0  0
   -6.4892    4.7826   -6.5268 C   0  0  0  0  0  0
   -6.7598    4.2252   -5.2659 C   0  0  0  0  0  0
   -8.1613    5.0350   -4.6012 S   0  0  0  0  0  0
   -8.2430    5.9836   -6.0409 C   0  0  0  0  0  0
   -7.3174    5.7318   -6.9265 N   0  0  0  0  0  0
   -6.0763    3.1372   -4.5008 C   0  0  0  0  0  0
   -5.9148    3.2249   -3.1139 C   0  0  0  0  0  0
   -5.2696    2.2080   -2.4165 C   0  0  0  0  0  0
   -4.7823    1.0870   -3.0970 C   0  0  0  0  0  0
   -4.9458    0.9966   -4.4815 C   0  0  0  0  0  0
   -5.5893    2.0155   -5.1783 C   0  0  0  0  0  0
   -4.0458   -0.0287   -2.3442 C   0  0  2  0  0  0
   -5.0458   -1.0113   -1.7124 C   0  0  0  0  0  0
   -3.0888    0.4437   -1.3356 N   0  0  0  0  0  0
   -2.0139    1.2185   -1.5723 C   0  0  0  0  0  0
   -1.7254    1.6527   -2.6898 O   0  0  0  0  0  0
   -1.1921    1.6397   -0.3325 C   0  0  2  0  0  0
   -1.3011    3.1405   -0.0313 C   0  0  0  0  0  0
   -0.1057    3.7819   -0.7227 C   0  0  2  0  0  0
    0.9777    2.6995   -0.7335 C   0  0  0  0  0  0
    0.2544    1.4335   -0.5427 N   0  0  0  0  0  0
    0.8501    0.2185   -0.4055 C   0  0  0  0  0  0
    0.2106   -0.8053   -0.1480 O   0  0  0  0  0  0
    2.3903    0.0799   -0.6201 C   0  0  2  0  0  0
    2.8006   -0.6309   -1.9672 C   0  0  0  0  0  0
    4.3448   -0.6164   -2.1185 C   0  0  0  0  0  0
    2.2138    0.1221   -3.1907 C   0  0  0  0  0  0
    2.3388   -2.1117   -2.0336 C   0  0  0  0  0  0
    2.9924   -0.5697    0.5548 N   0  0  0  0  0  0
    3.1312   -0.0214    1.7789 C   0  0  0  0  0  0
    2.7731    1.1299    2.0399 O   0  0  0  0  0  0
    3.7503   -0.8987    2.8461 C   0  0  0  0  0  0
    4.4301   -2.0859    2.5298 C   0  0  0  0  0  0
    4.9890   -2.8383    3.5591 C   0  0  0  0  0  0
    4.9027   -2.4776    4.8617 N   0  0  0  0  0  0
    4.2261   -1.3420    5.1978 C   0  0  0  0  0  0
    3.6629   -0.5284    4.1983 C   0  0  0  0  0  0
    4.2057   -0.9850    6.5523 N   0  0  0  0  0  0
    4.7500   -1.8566    7.6091 C   0  0  0  0  0  0
    5.1203   -1.1360    8.9232 C   0  0  0  0  0  0
    4.0401   -0.3177    9.4871 N   0  0  0  0  0  0
    3.5467    0.5841    8.4395 C   0  0  0  0  0  0
    3.1571   -0.1242    7.1247 C   0  0  0  0  0  0
    4.0638    0.1189   10.8130 C   0  0  0  0  0  0
    5.2749    0.2343   11.5120 C   0  0  0  0  0  0
    5.2741    0.7031   12.8292 C   0  0  0  0  0  0
    4.1149    1.0677   13.4406 N   0  0  0  0  0  0
    2.9447    0.9618   12.7931 N   0  0  0  0  0  0
    2.9010    0.5001   11.5170 C   0  0  0  0  0  0
    1.6191    0.3890   10.9716 N   0  0  0  0  0  0
    6.5269    0.8630   13.6278 C   0  0  0  0  0  0
    6.7388    2.0429   14.3588 C   0  0  0  0  0  0
    7.9007    2.2326   15.1052 C   0  0  0  0  0  0
    8.8764    1.2406   15.1362 C   0  0  0  0  0  0
    8.6868    0.0598   14.4228 C   0  0  0  0  0  0
    7.5230   -0.1343   13.6751 C   0  0  0  0  0  0
    7.3786   -1.3289   13.0152 O   0  0  0  0  0  0
    0.2786    5.0222   -0.1683 O   0  0  0  0  0  0
   -4.5655    3.8861   -7.0146 H   0  0  0  0  0  0
   -4.8946    5.3557   -7.8921 H   0  0  0  0  0  0
   -5.7177    3.8712   -8.3367 H   0  0  0  0  0  0
   -9.0116    6.7293   -6.1798 H   0  0  0  0  0  0
   -6.2771    4.0850   -2.5700 H   0  0  0  0  0  0
   -5.1470    2.2945   -1.3467 H   0  0  0  0  0  0
   -4.5730    0.1386   -5.0216 H   0  0  0  0  0  0
   -5.7131    1.9228   -6.2472 H   0  0  0  0  0  0
   -3.4610   -0.6020   -3.0680 H   0  0  0  0  0  0
   -5.7016   -1.4471   -2.4673 H   0  0  0  0  0  0
   -5.6753   -0.5199   -0.9690 H   0  0  0  0  0  0
   -4.5316   -1.8352   -1.2159 H   0  0  0  0  0  0
   -3.2049    0.0650   -0.4071 H   0  0  0  0  0  0
   -1.5469    1.0248    0.4972 H   0  0  0  0  0  0
   -2.2618    3.5840   -0.3006 H   0  0  0  0  0  0
   -1.2275    3.2828    1.0484 H   0  0  0  0  0  0
   -0.4013    3.9704   -1.7564 H   0  0  0  0  0  0
    1.5541    2.7408   -1.6583 H   0  0  0  0  0  0
    1.6421    2.8693    0.1152 H   0  0  0  0  0  0
    2.8477    1.0682   -0.6525 H   0  0  0  0  0  0
    4.6607   -1.0826   -3.0531 H   0  0  0  0  0  0
    4.8419   -1.1607   -1.3147 H   0  0  0  0  0  0
    4.7387    0.4008   -2.1229 H   0  0  0  0  0  0
    2.5643    1.1542   -3.2334 H   0  0  0  0  0  0
    1.1234    0.1409   -3.1822 H   0  0  0  0  0  0
    2.5068   -0.3519   -4.1287 H   0  0  0  0  0  0
    2.6964   -2.5973   -2.9428 H   0  0  0  0  0  0
    1.2531   -2.2053   -2.0479 H   0  0  0  0  0  0
    2.7163   -2.6953   -1.1932 H   0  0  0  0  0  0
    3.2966   -1.5210    0.4107 H   0  0  0  0  0  0
    4.5404   -2.4270    1.5105 H   0  0  0  0  0  0
    5.5259   -3.7512    3.3463 H   0  0  0  0  0  0
    3.1625    0.3928    4.4517 H   0  0  0  0  0  0
    4.0026   -2.6179    7.8393 H   0  0  0  0  0  0
    5.6381   -2.3807    7.2551 H   0  0  0  0  0  0
    5.4288   -1.8839    9.6552 H   0  0  0  0  0  0
    5.9823   -0.4965    8.7247 H   0  0  0  0  0  0
    2.6986    1.1713    8.7886 H   0  0  0  0  0  0
    4.3373    1.3015    8.2110 H   0  0  0  0  0  0
    2.2834   -0.7468    7.3239 H   0  0  0  0  0  0
    2.8363    0.6467    6.4283 H   0  0  0  0  0  0
    6.2128   -0.0156   11.0381 H   0  0  0  0  0  0
    1.5088    0.0299   10.0341 H   0  0  0  0  0  0
    0.8191    0.6465   11.5314 H   0  0  0  0  0  0
    5.9988    2.8302   14.3449 H   0  0  0  0  0  0
    8.0446    3.1495   15.6575 H   0  0  0  0  0  0
    9.7771    1.3855   15.7143 H   0  0  0  0  0  0
    9.4459   -0.7082   14.4578 H   0  0  0  0  0  0
    8.1262   -1.9173   13.1423 H   0  0  0  0  0  0
    0.2995    4.9359    0.7877 H   0  0  0  0  0  0
  1  2  1  0  0  0
  1 60  1  0  0  0
  1 61  1  0  0  0
  1 62  1  0  0  0
  2  3  2  0  0  0
  2  6  1  0  0  0
  3  4  1  0  0  0
  3  7  1  0  0  0
  4  5  1  0  0  0
  5  6  2  0  0  0
  5 63  1  0  0  0
  7  8  2  0  0  0
  7 12  1  0  0  0
  8  9  1  0  0  0
  8 64  1  0  0  0
  9 10  2  0  0  0
  9 65  1  0  0  0
 10 11  1  0  0  0
 10 13  1  0  0  0
 11 12  2  0  0  0
 11 66  1  0  0  0
 12 67  1  0  0  0
 13 14  1  0  0  0
 13 15  1  0  0  0
 13 68  1  0  0  0
 14 69  1  0  0  0
 14 70  1  0  0  0
 14 71  1  0  0  0
 15 16  1  0  0  0
 15 72  1  0  0  0
 16 17  2  0  0  0
 16 18  1  0  0  0
 18 19  1  0  0  0
 18 22  1  0  0  0
 18 73  1  0  0  0
 19 20  1  0  0  0
 19 74  1  0  0  0
 19 75  1  0  0  0
 20 21  1  0  0  0
 20 59  1  0  0  0
 20 76  1  0  0  0
 21 22  1  0  0  0
 21 77  1  0  0  0
 21 78  1  0  0  0
 22 23  1  0  0  0
 23 24  2  0  0  0
 23 25  1  0  0  0
 25 26  1  0  0  0
 25 30  1  0  0  0
 25 79  1  0  0  0
 26 27  1  0  0  0
 26 28  1  0  0  0
 26 29  1  0  0  0
 27 80  1  0  0  0
 27 81  1  0  0  0
 27 82  1  0  0  0
 28 83  1  0  0  0
 28 84  1  0  0  0
 28 85  1  0  0  0
 29 86  1  0  0  0
 29 87  1  0  0  0
 29 88  1  0  0  0
 30 31  1  0  0  0
 30 89  1  0  0  0
 31 32  2  0  0  0
 31 33  1  0  0  0
 33 34  2  0  0  0
 33 38  1  0  0  0
 34 35  1  0  0  0
 34 90  1  0  0  0
 35 36  2  0  0  0
 35 91  1  0  0  0
 36 37  1  0  0  0
 37 38  2  0  0  0
 37 39  1  0  0  0
 38 92  1  0  0  0
 39 40  1  0  0  0
 39 44  1  0  0  0
 40 41  1  0  0  0
 40 93  1  0  0  0
 40 94  1  0  0  0
 41 42  1  0  0  0
 41 95  1  0  0  0
 41 96  1  0  0  0
 42 43  1  0  0  0
 42 45  1  0  0  0
 43 44  1  0  0  0
 43 97  1  0  0  0
 43 98  1  0  0  0
 44 99  1  0  0  0
 44100  1  0  0  0
 45 46  2  0  0  0
 45 50  1  0  0  0
 46 47  1  0  0  0
 46101  1  0  0  0
 47 48  2  0  0  0
 47 52  1  0  0  0
 48 49  1  0  0  0
 49 50  2  0  0  0
 50 51  1  0  0  0
 51102  1  0  0  0
 51103  1  0  0  0
 52 53  2  0  0  0
 52 57  1  0  0  0
 53 54  1  0  0  0
 53104  1  0  0  0
 54 55  2  0  0  0
 54105  1  0  0  0
 55 56  1  0  0  0
 55106  1  0  0  0
 56 57  2  0  0  0
 56107  1  0  0  0
 57 58  1  0  0  0
 58108  1  0  0  0
 59109  1  0  0  0
M  END
$$$$
