6BN7_chainB_molecule2_molecule
                    3D
 Schrodinger Suite 2023-4.
 28 31  0  0  1  0            999 V2000
   73.8310   33.7530   58.1310 N   0  0  0  0  0  0
   72.6930   35.6970   59.1860 C   0  0  0  0  0  0
   71.9890   32.2090   52.2780 O   0  0  0  0  0  0
   72.9150   34.6860   58.1220 C   0  0  0  0  0  0
   72.5580   38.7050   52.5520 C   0  0  0  0  0  0
   72.9100   38.3400   51.2720 C   0  0  0  0  0  0
   72.9470   37.0180   50.8890 C   0  0  0  0  0  0
   72.6230   36.0390   51.8110 C   0  0  0  0  0  0
   70.9690   35.6860   55.1550 C   0  0  0  0  0  0
   71.1060   35.3400   56.4800 C   0  0  0  0  0  0
   69.0620   36.6550   56.0810 C   0  0  0  0  0  0
   72.7120   33.5290   56.2680 C   0  0  0  0  0  0
   72.1270   33.1370   54.9290 C   0  0  2  0  0  0
   72.6840   31.7840   54.4700 C   0  0  0  0  0  0
   69.7760   36.4530   54.9210 C   0  0  0  0  0  0
   69.3540   36.9730   53.5780 C   0  0  0  0  0  0
   73.0150   31.7790   53.0040 C   0  0  0  0  0  0
   72.0700   31.9640   50.8540 C   0  0  0  0  0  0
   71.9170   35.3300   54.0940 C   0  0  0  0  0  0
   72.2630   36.3770   53.1120 C   0  0  0  0  0  0
   72.2350   37.7210   53.4690 C   0  0  0  0  0  0
   73.7070   33.0170   56.9580 N   0  0  0  0  0  0
   72.4710   34.1820   53.9540 N   0  0  0  0  0  0
   72.1740   34.5930   56.9630 N   0  0  0  0  0  0
   74.0650   31.4350   52.5340 O   0  0  0  0  0  0
   69.8120   35.9280   57.4650 S   0  0  0  0  0  0
   73.3170   39.5760   50.1140 Cl  0  0  0  0  0  0
   68.1400   37.2169   56.0567 H   0  0  0  0  0  0
  1  4  2  0  0  0
  1 22  1  0  0  0
  2  4  1  0  0  0
  3 17  1  0  0  0
  3 18  1  0  0  0
  4 24  1  0  0  0
  5  6  1  0  0  0
  5 21  2  0  0  0
  6  7  2  0  0  0
  6 27  1  0  0  0
  7  8  1  0  0  0
  8 20  2  0  0  0
  9 10  2  0  0  0
  9 15  1  0  0  0
  9 19  1  0  0  0
 10 24  1  0  0  0
 10 26  1  0  0  0
 11 15  2  0  0  0
 11 26  1  0  0  0
 11 28  1  0  0  0
 12 13  1  0  0  0
 12 22  2  0  0  0
 12 24  1  0  0  0
 13 14  1  0  0  0
 13 23  1  0  0  0
 14 17  1  0  0  0
 15 16  1  0  0  0
 17 25  2  0  0  0
 19 20  1  0  0  0
 19 23  2  0  0  0
 20 21  1  0  0  0
M  END
$$$$
