8QW6_chainE_ligand_molecule
                    3D
 Schrodinger Suite 2023-4.
 35 39  0  0  1  0            999 V2000
  206.2150  158.5460  185.7970 N   0  0  1  0  0  0
  209.0020  155.3480  175.1340 S   0  0  0  0  0  0
  210.5880  155.3200  178.6240 C   0  0  0  0  0  0
  210.8160  156.8610  176.2560 N   0  0  0  0  0  0
  211.2110  155.3780  179.5260 N   0  0  0  0  0  0
  209.9290  152.5550  178.4750 C   0  0  0  0  0  0
  208.2080  153.7730  179.5920 C   0  0  0  0  0  0
  207.1490  154.5750  179.6430 O   0  0  0  0  0  0
  206.9560  154.8550  180.9780 N   0  0  0  0  0  0
  207.9160  154.2040  181.5640 C   0  0  0  0  0  0
  208.7240  153.5190  180.7380 N   0  0  0  0  0  0
  207.5180  153.0660  175.5320 C   0  0  0  0  0  0
  208.0740  154.2750  183.0210 C   0  0  0  0  0  0
  207.2020  155.0490  183.6670 N   0  0  0  0  0  0
  207.2940  155.0550  184.9900 C   0  0  0  0  0  0
  208.1940  154.4110  185.7210 N   0  0  0  0  0  0
  209.0530  153.6610  185.0370 C   0  0  0  0  0  0
  209.0310  153.5350  183.6810 C   0  0  0  0  0  0
  206.3180  155.6980  185.6790 N   0  0  0  0  0  0
  206.5720  155.9790  187.0830 C   0  0  0  0  0  0
  207.6140  157.0490  187.2690 C   0  0  0  0  0  0
  205.4590  156.5040  185.0000 C   0  0  2  0  0  0
  207.7200  151.8910  176.3570 C   0  0  0  0  0  0
  207.0230  158.3920  187.0530 C   0  0  0  0  0  0
  205.0950  157.7380  185.7400 C   0  0  0  0  0  0
  204.2550  155.6170  185.0170 C   0  0  0  0  0  0
  207.5260  152.2580  177.8040 C   0  0  0  0  0  0
  208.5790  153.2220  178.3390 C   0  0  2  0  0  0
  208.3610  154.1410  176.1010 C   0  0  0  0  0  0
  208.8570  154.1620  177.3450 C   0  0  0  0  0  0
  209.7840  155.1490  177.5090 C   0  0  0  0  0  0
  209.9870  155.8880  176.4030 C   0  0  0  0  0  0
  205.8952  159.5007  185.7168 H   0  0  0  0  0  0
  209.7060  152.9038  183.1221 H   0  0  0  0  0  0
  209.8219  153.1094  185.5576 H   0  0  0  0  0  0
  1 24  1  0  0  0
  1 25  1  0  0  0
  1 33  1  0  0  0
  2 29  1  0  0  0
  2 32  1  0  0  0
  3  5  3  0  0  0
  3 31  1  0  0  0
  4 32  1  0  0  0
  6 28  1  0  0  0
  7  8  1  0  0  0
  7 11  2  0  0  0
  7 28  1  0  0  0
  8  9  1  0  0  0
  9 10  2  0  0  0
 10 11  1  0  0  0
 10 13  1  0  0  0
 12 23  1  0  0  0
 12 29  1  0  0  0
 13 14  1  0  0  0
 13 18  2  0  0  0
 14 15  2  0  0  0
 15 16  1  0  0  0
 15 19  1  0  0  0
 16 17  2  0  0  0
 17 18  1  0  0  0
 17 35  1  0  0  0
 18 34  1  0  0  0
 19 20  1  0  0  0
 19 22  1  0  0  0
 20 21  1  0  0  0
 21 24  1  0  0  0
 22 25  1  0  0  0
 22 26  1  0  0  0
 23 27  1  0  0  0
 27 28  1  0  0  0
 28 30  1  0  0  0
 29 30  2  0  0  0
 30 31  1  0  0  0
 31 32  2  0  0  0
M  END
$$$$
