protac.smi:1
                    3D
 Schrodinger Suite 2023-4.
134141  0  0  1  0            999 V2000
  -10.7073   -1.7952    0.2735 C   0  0  0  0  0  0
  -10.5809   -0.7102   -0.7772 C   0  0  0  0  0  0
  -10.0323    0.5772   -0.6536 C   0  0  0  0  0  0
  -10.2082    1.3948   -2.1902 S   0  0  0  0  0  0
  -10.9521   -0.0309   -2.8159 C   0  0  0  0  0  0
  -11.0672   -1.0163   -1.9672 N   0  0  0  0  0  0
   -9.3723    1.2620    0.4997 C   0  0  0  0  0  0
   -9.5764    2.6245    0.7474 C   0  0  0  0  0  0
   -8.9318    3.2493    1.8116 C   0  0  0  0  0  0
   -8.0685    2.5182    2.6298 C   0  0  0  0  0  0
   -7.8795    1.1539    2.4011 C   0  0  0  0  0  0
   -8.5271    0.5306    1.3392 C   0  0  0  0  0  0
   -7.3324    3.2017    3.7771 C   0  0  0  0  0  0
   -5.9011    3.3472    3.5162 N   0  0  0  0  0  0
   -5.3689    4.1959    2.6187 C   0  0  0  0  0  0
   -6.0316    5.0349    2.0041 O   0  0  0  0  0  0
   -3.8652    4.0099    2.3138 C   0  0  2  0  0  0
   -3.0618    5.3313    2.3239 C   0  0  0  0  0  0
   -2.1566    5.2539    1.1005 C   0  0  2  0  0  0
   -3.0208    4.4739    0.1012 C   0  0  0  0  0  0
   -3.6771    3.4698    0.9493 N   0  0  0  0  0  0
   -3.8824    2.1622    0.6313 C   0  0  0  0  0  0
   -4.2317    1.3276    1.4703 O   0  0  0  0  0  0
   -3.8150    1.7048   -0.8589 C   0  0  2  0  0  0
   -5.2219    1.3569   -1.4887 C   0  0  0  0  0  0
   -5.0570    1.1815   -3.0217 C   0  0  0  0  0  0
   -6.2517    2.4984   -1.2705 C   0  0  0  0  0  0
   -5.8224    0.0324   -0.9433 C   0  0  0  0  0  0
   -2.8579    0.5965   -0.9938 N   0  0  0  0  0  0
   -1.5231    0.6955   -0.8658 C   0  0  0  0  0  0
   -0.9448    1.7649   -0.6656 O   0  0  0  0  0  0
   -0.7398   -0.6211   -0.9899 C   0  0  0  0  0  0
    0.7747   -0.4931   -0.7104 C   0  0  0  0  0  0
    1.5099   -1.8443   -0.7708 C   0  0  0  0  0  0
    3.0202   -1.7146   -0.5086 C   0  0  0  0  0  0
    3.7391   -3.0799   -0.5510 C   0  0  0  0  0  0
    5.2650   -2.9795   -0.2959 N   0  3  2  0  0  0
    5.6017   -2.6685    1.1778 C   0  0  0  0  0  0
    7.1078   -2.5902    1.4612 C   0  0  0  0  0  0
    7.9877   -3.6169    0.7161 C   0  0  0  0  0  0
    8.0892   -3.5532   -0.7588 N   0  0  0  0  0  0
    7.5742   -2.3094   -1.3912 C   0  0  2  0  0  0
    6.0206   -2.1444   -1.3588 C   0  0  0  0  0  0
    8.0189   -2.1237   -2.8685 C   0  0  0  0  0  0
    9.3227   -4.0882   -1.1668 C   0  0  0  0  0  0
   10.4130   -3.2706   -1.2113 N   0  0  0  0  0  0
   11.6028   -3.8589   -1.4955 C   0  0  0  0  0  0
   11.7286   -5.2335   -1.7016 C   0  0  0  0  0  0
   10.5647   -6.0098   -1.6001 C   0  0  0  0  0  0
    9.3570   -5.4390   -1.3200 N   0  0  0  0  0  0
   10.5813   -7.5005   -1.7876 C   0  0  0  0  0  0
   11.6345   -8.1243   -2.2845 N   0  0  0  0  0  0
   11.2664   -9.3784   -2.2552 C   0  0  0  0  0  0
   10.0045   -9.5519   -1.7887 O   0  0  0  0  0  0
    9.5602   -8.2727   -1.4666 N   0  0  0  0  0  0
   12.0713  -10.5956   -2.7270 C   0  0  1  0  0  0
   12.0968  -10.5843   -4.2889 C   0  0  0  0  0  0
   13.1363  -11.5283   -4.9160 C   0  0  0  0  0  0
   14.5675  -11.1136   -4.5421 C   0  0  0  0  0  0
   14.6361  -10.8488   -3.0465 C   0  0  0  0  0  0
   13.5376  -10.5745   -2.2059 C   0  0  0  0  0  0
   13.9621  -10.3458   -0.8654 C   0  0  0  0  0  0
   15.3530  -10.4053   -0.7348 C   0  0  0  0  0  0
   16.1543  -10.7572   -2.2200 S   0  0  0  0  0  0
   16.1195  -10.2286    0.3855 N   0  0  0  0  0  0
   13.0699  -10.0835    0.2615 C   0  0  0  0  0  0
   12.3625   -9.8752    1.1529 N   0  0  0  0  0  0
   11.3993  -11.9109   -2.2478 C   0  0  0  0  0  0
   -0.9945    4.5030    1.4133 O   0  0  0  0  0  0
  -10.5529   -1.4148    1.2829 H   0  0  0  0  0  0
   -9.9803   -2.5930    0.1175 H   0  0  0  0  0  0
  -11.6962   -2.2565    0.2720 H   0  0  0  0  0  0
  -11.2929   -0.0842   -3.8391 H   0  0  0  0  0  0
  -10.2330    3.2064    0.1172 H   0  0  0  0  0  0
   -9.0890    4.3041    1.9856 H   0  0  0  0  0  0
   -7.2136    0.5813    3.0304 H   0  0  0  0  0  0
   -8.3469   -0.5190    1.1591 H   0  0  0  0  0  0
   -7.7837    4.1679    4.0133 H   0  0  0  0  0  0
   -7.4453    2.5887    4.6722 H   0  0  0  0  0  0
   -5.2971    2.6608    3.9447 H   0  0  0  0  0  0
   -3.4916    3.3024    3.0568 H   0  0  0  0  0  0
   -3.7078    6.2008    2.1845 H   0  0  0  0  0  0
   -2.5199    5.4956    3.2565 H   0  0  0  0  0  0
   -1.8380    6.2211    0.7101 H   0  0  0  0  0  0
   -3.7672    5.1572   -0.3060 H   0  0  0  0  0  0
   -2.3909    4.0975   -0.7043 H   0  0  0  0  0  0
   -3.4190    2.5130   -1.4698 H   0  0  0  0  0  0
   -6.0067    0.9382   -3.5011 H   0  0  0  0  0  0
   -4.3647    0.3763   -3.2709 H   0  0  0  0  0  0
   -4.6889    2.0932   -3.4950 H   0  0  0  0  0  0
   -5.9003    3.4421   -1.6899 H   0  0  0  0  0  0
   -6.4695    2.6633   -0.2146 H   0  0  0  0  0  0
   -7.2059    2.2722   -1.7476 H   0  0  0  0  0  0
   -6.8105   -0.1581   -1.3658 H   0  0  0  0  0  0
   -5.9486    0.0468    0.1377 H   0  0  0  0  0  0
   -5.2047   -0.8308   -1.1934 H   0  0  0  0  0  0
   -3.2686   -0.3104   -1.1614 H   0  0  0  0  0  0
   -1.1774   -1.3406   -0.2957 H   0  0  0  0  0  0
   -0.8929   -1.0137   -1.9963 H   0  0  0  0  0  0
    1.2238    0.1903   -1.4337 H   0  0  0  0  0  0
    0.9312   -0.0500    0.2751 H   0  0  0  0  0  0
    1.0720   -2.5260   -0.0399 H   0  0  0  0  0  0
    1.3497   -2.3005   -1.7491 H   0  0  0  0  0  0
    3.4470   -1.0425   -1.2530 H   0  0  0  0  0  0
    3.1693   -1.2387    0.4603 H   0  0  0  0  0  0
    3.3624   -3.7748    0.2009 H   0  0  0  0  0  0
    3.6491   -3.5611   -1.5260 H   0  0  0  0  0  0
    5.0942   -1.7420    1.4441 H   0  0  0  0  0  0
    5.1488   -3.4957    1.7263 H   0  0  0  0  0  0
    7.4890   -1.5768    1.3302 H   0  0  0  0  0  0
    7.2284   -2.7774    2.5290 H   0  0  0  0  0  0
    8.9719   -3.3617    1.1175 H   0  0  0  0  0  0
    7.7667   -4.6386    1.0293 H   0  0  0  0  0  0
    8.0139   -1.4783   -0.8378 H   0  0  0  0  0  0
    5.7173   -1.1067   -1.2164 H   0  0  0  0  0  0
    5.5815   -2.5095   -2.2894 H   0  0  0  0  0  0
    7.5760   -1.2246   -3.2989 H   0  0  0  0  0  0
    7.7085   -2.9665   -3.4879 H   0  0  0  0  0  0
    9.0947   -2.0050   -2.9834 H   0  0  0  0  0  0
   12.4647   -3.2101   -1.5486 H   0  0  0  0  0  0
   12.6909   -5.6728   -1.9206 H   0  0  0  0  0  0
   11.1063  -10.8239   -4.6801 H   0  0  0  0  0  0
   12.3068   -9.5753   -4.6507 H   0  0  0  0  0  0
   12.9515  -12.5568   -4.6047 H   0  0  0  0  0  0
   13.0311  -11.5253   -6.0017 H   0  0  0  0  0  0
   15.2753  -11.8849   -4.8483 H   0  0  0  0  0  0
   14.8366  -10.2081   -5.0875 H   0  0  0  0  0  0
   15.7051  -10.0168    1.2821 H   0  0  0  0  0  0
   17.1261  -10.3044    0.3566 H   0  0  0  0  0  0
   11.2934  -11.9386   -1.1628 H   0  0  0  0  0  0
   11.9757  -12.7924   -2.5301 H   0  0  0  0  0  0
   10.4002  -12.0316   -2.6693 H   0  0  0  0  0  0
   -1.2419    3.7950    2.0127 H   0  0  0  0  0  0
    5.6080   -3.9194   -0.4396 H   0  0  0  0  0  0
  1  2  1  0  0  0
  1 70  1  0  0  0
  1 71  1  0  0  0
  1 72  1  0  0  0
  2  3  2  0  0  0
  2  6  1  0  0  0
  3  4  1  0  0  0
  3  7  1  0  0  0
  4  5  1  0  0  0
  5  6  2  0  0  0
  5 73  1  0  0  0
  7  8  2  0  0  0
  7 12  1  0  0  0
  8  9  1  0  0  0
  8 74  1  0  0  0
  9 10  2  0  0  0
  9 75  1  0  0  0
 10 11  1  0  0  0
 10 13  1  0  0  0
 11 12  2  0  0  0
 11 76  1  0  0  0
 12 77  1  0  0  0
 13 14  1  0  0  0
 13 78  1  0  0  0
 13 79  1  0  0  0
 14 15  1  0  0  0
 14 80  1  0  0  0
 15 16  2  0  0  0
 15 17  1  0  0  0
 17 18  1  0  0  0
 17 21  1  0  0  0
 17 81  1  0  0  0
 18 19  1  0  0  0
 18 82  1  0  0  0
 18 83  1  0  0  0
 19 20  1  0  0  0
 19 69  1  0  0  0
 19 84  1  0  0  0
 20 21  1  0  0  0
 20 85  1  0  0  0
 20 86  1  0  0  0
 21 22  1  0  0  0
 22 23  2  0  0  0
 22 24  1  0  0  0
 24 25  1  0  0  0
 24 29  1  0  0  0
 24 87  1  0  0  0
 25 26  1  0  0  0
 25 27  1  0  0  0
 25 28  1  0  0  0
 26 88  1  0  0  0
 26 89  1  0  0  0
 26 90  1  0  0  0
 27 91  1  0  0  0
 27 92  1  0  0  0
 27 93  1  0  0  0
 28 94  1  0  0  0
 28 95  1  0  0  0
 28 96  1  0  0  0
 29 30  1  0  0  0
 29 97  1  0  0  0
 30 31  2  0  0  0
 30 32  1  0  0  0
 32 33  1  0  0  0
 32 98  1  0  0  0
 32 99  1  0  0  0
 33 34  1  0  0  0
 33100  1  0  0  0
 33101  1  0  0  0
 34 35  1  0  0  0
 34102  1  0  0  0
 34103  1  0  0  0
 35 36  1  0  0  0
 35104  1  0  0  0
 35105  1  0  0  0
 36 37  1  0  0  0
 36106  1  0  0  0
 36107  1  0  0  0
 37 38  1  0  0  0
 37 43  1  0  0  0
 37134  1  0  0  0
 38 39  1  0  0  0
 38108  1  0  0  0
 38109  1  0  0  0
 39 40  1  0  0  0
 39110  1  0  0  0
 39111  1  0  0  0
 40 41  1  0  0  0
 40112  1  0  0  0
 40113  1  0  0  0
 41 42  1  0  0  0
 41 45  1  0  0  0
 42 43  1  0  0  0
 42 44  1  0  0  0
 42114  1  0  0  0
 43115  1  0  0  0
 43116  1  0  0  0
 44117  1  0  0  0
 44118  1  0  0  0
 44119  1  0  0  0
 45 46  2  0  0  0
 45 50  1  0  0  0
 46 47  1  0  0  0
 47 48  2  0  0  0
 47120  1  0  0  0
 48 49  1  0  0  0
 48121  1  0  0  0
 49 50  2  0  0  0
 49 51  1  0  0  0
 51 52  1  0  0  0
 51 55  2  0  0  0
 52 53  2  0  0  0
 53 54  1  0  0  0
 53 56  1  0  0  0
 54 55  1  0  0  0
 56 57  1  0  0  0
 56 68  1  0  0  0
 56 61  1  0  0  0
 57 58  1  0  0  0
 57122  1  0  0  0
 57123  1  0  0  0
 58 59  1  0  0  0
 58124  1  0  0  0
 58125  1  0  0  0
 59 60  1  0  0  0
 59126  1  0  0  0
 59127  1  0  0  0
 60 61  2  0  0  0
 60 64  1  0  0  0
 61 62  1  0  0  0
 62 63  2  0  0  0
 62 66  1  0  0  0
 63 64  1  0  0  0
 63 65  1  0  0  0
 65128  1  0  0  0
 65129  1  0  0  0
 66 67  3  0  0  0
 68130  1  0  0  0
 68131  1  0  0  0
 68132  1  0  0  0
 69133  1  0  0  0
M  CHG  1  37   1
M  END
$$$$
