6zhc_chainA_ligand_molecule
                    3D
 Schrodinger Suite 2023-4.
 33 35  0  0  1  0            999 V2000
   33.4820   36.5470   13.7320 C   0  0  0  0  0  0
   32.3920   37.3310   13.9010 C   0  0  0  0  0  0
   31.0340   36.5910   13.1580 S   0  0  0  0  0  0
   32.0360   35.3310   12.6590 C   0  0  0  0  0  0
   33.2500   35.3980   13.0120 N   0  0  0  0  0  0
   32.2580   38.5870   14.6270 C   0  0  0  0  0  0
   33.2430   39.5700   14.4820 C   0  0  0  0  0  0
   33.1570   40.7560   15.2000 C   0  0  0  0  0  0
   32.1040   40.9900   16.1090 C   0  0  0  0  0  0
   31.1120   39.9830   16.2600 C   0  0  0  0  0  0
   31.2000   38.8060   15.5160 C   0  0  0  0  0  0
   32.0730   42.3080   16.8790 C   0  0  0  0  0  0
   30.7580   42.4790   17.4960 N   0  0  0  0  0  0
   29.8240   43.1920   16.8660 C   0  0  0  0  0  0
   28.4910   43.2170   17.5500 C   0  0  1  0  0  0
   30.0670   43.7480   15.7810 O   0  0  0  0  0  0
   27.6960   44.4540   17.3620 N   0  0  0  0  0  0
   26.4150   44.1410   16.6910 C   0  0  0  0  0  0
   26.1870   42.6550   16.9540 C   0  0  1  0  0  0
   27.6240   42.1160   16.9200 C   0  0  0  0  0  0
   28.2500   45.5930   17.8560 C   0  0  0  0  0  0
   25.5700   42.4050   18.2260 O   0  0  0  0  0  0
   29.4020   45.5760   18.3540 O   0  0  0  0  0  0
   27.4550   46.8990   17.7970 C   0  0  2  0  0  0
   27.9040   47.8370   16.6430 C   0  0  0  0  0  0
   27.6000   47.4810   19.1440 N   0  0  0  0  0  0
   29.3810   48.3110   16.8330 C   0  0  0  0  0  0
   27.7750   47.1110   15.3160 C   0  0  0  0  0  0
   26.9160   49.0350   16.6770 C   0  0  0  0  0  0
   26.5790   47.6490   19.9740 C   0  0  0  0  0  0
   25.4400   47.3500   19.6820 O   0  0  0  0  0  0
   34.8810   36.7760   14.2430 C   0  0  0  0  0  0
   26.7444   48.0676   20.9558 H   0  0  0  0  0  0
  1  2  2  0  0  0
  1  5  1  0  0  0
  1 32  1  0  0  0
  2  3  1  0  0  0
  2  6  1  0  0  0
  3  4  1  0  0  0
  4  5  2  0  0  0
  6  7  2  0  0  0
  6 11  1  0  0  0
  7  8  1  0  0  0
  8  9  2  0  0  0
  9 10  1  0  0  0
  9 12  1  0  0  0
 10 11  2  0  0  0
 12 13  1  0  0  0
 13 14  1  0  0  0
 14 15  1  0  0  0
 14 16  2  0  0  0
 15 17  1  0  0  0
 15 20  1  0  0  0
 17 18  1  0  0  0
 17 21  1  0  0  0
 18 19  1  0  0  0
 19 20  1  0  0  0
 19 22  1  0  0  0
 21 23  2  0  0  0
 21 24  1  0  0  0
 24 25  1  0  0  0
 24 26  1  0  0  0
 25 27  1  0  0  0
 25 28  1  0  0  0
 25 29  1  0  0  0
 26 30  1  0  0  0
 30 31  2  0  0  0
 30 33  1  0  0  0
M  END
$$$$
