7Z6L_chainA_ligand_molecule2
                    3D
 Schrodinger Suite 2023-4.
 25 29  0  0  1  0            999 V2000
  -27.0140   11.8970   -4.7560 C   0  0  0  0  0  0
  -26.2650   12.6520   -5.6690 C   0  0  0  0  0  0
  -26.9500   13.4130   -6.6220 C   0  0  0  0  0  0
  -28.3430   13.4090   -6.6670 C   0  0  0  0  0  0
  -29.0800   12.6420   -5.7790 C   0  0  0  0  0  0
  -28.4030   11.8860   -4.8410 C   0  0  0  0  0  0
  -26.5000   14.3130   -7.6360 N   0  0  0  0  0  0
  -27.6170   14.8550   -8.2410 C   0  0  0  0  0  0
  -28.7420   14.2870   -7.6760 N   0  0  0  0  0  0
  -27.6620   15.8360   -9.1150 N   0  0  0  0  0  0
  -28.8790   16.3660   -9.5370 C   0  0  0  0  0  0
  -30.1180   15.7300   -9.0430 C   0  0  0  0  0  0
  -30.0280   14.7040   -8.0810 C   0  0  0  0  0  0
  -31.4300   16.0800   -9.4640 C   0  0  0  0  0  0
  -32.5580   15.5160   -8.8870 C   0  0  0  0  0  0
  -32.4200   14.5470   -7.9170 C   0  0  0  0  0  0
  -31.1650   14.1240   -7.5260 C   0  0  0  0  0  0
  -25.1090   14.6750   -8.0640 C   0  0  0  0  0  0
  -28.9000   17.4080  -10.1980 O   0  0  0  0  0  0
  -31.7790   17.2090  -10.9450 Br  0  0  0  0  0  0
  -24.2240   13.4740   -8.4490 C   0  0  0  0  0  0
  -22.9940   13.5680   -7.5420 C   0  0  0  0  0  0
  -22.8750   15.0110   -7.2010 C   0  0  0  0  0  0
  -24.3100   15.4660   -7.0200 C   0  0  0  0  0  0
  -26.5131   11.3255   -3.9887 H   0  0  0  0  0  0
  1  2  2  0  0  0
  1  6  1  0  0  0
  1 25  1  0  0  0
  2  3  1  0  0  0
  3  4  2  0  0  0
  3  7  1  0  0  0
  4  5  1  0  0  0
  4  9  1  0  0  0
  5  6  2  0  0  0
  7  8  1  0  0  0
  7 18  1  0  0  0
  8  9  1  0  0  0
  8 10  2  0  0  0
  9 13  1  0  0  0
 10 11  1  0  0  0
 11 12  1  0  0  0
 11 19  2  0  0  0
 12 13  1  0  0  0
 12 14  2  0  0  0
 13 17  2  0  0  0
 14 15  1  0  0  0
 14 20  1  0  0  0
 15 16  2  0  0  0
 16 17  1  0  0  0
 18 21  1  0  0  0
 18 24  1  0  0  0
 21 22  1  0  0  0
 22 23  1  0  0  0
 23 24  1  0  0  0
M  END
$$$$
