7Z6L_chainA_ligand
                    3D
 Schrodinger Suite 2023-4.
132141  0  0  1  0            999 V2000
  -23.9703    7.1744    3.1502 C   0  0  0  0  0  0
  -23.1328    6.1003    3.4608 C   0  0  0  0  0  0
  -23.3403    4.8774    2.8176 C   0  0  0  0  0  0
  -22.0394    6.2765    4.4648 C   0  0  0  0  0  0
  -26.3442    5.6554    0.5580 C   0  0  0  0  0  0
  -25.2938    4.7202   -1.5022 C   0  0  0  0  0  0
  -23.9403    2.6287   -2.1587 C   0  0  0  0  0  0
  -23.7913    3.3509   -4.4093 C   0  0  0  0  0  0
  -25.8932    4.7519   -6.1059 C   0  0  1  0  0  0
  -25.4913    6.2613   -6.3390 C   0  0  0  0  0  0
  -26.5840    7.2433   -5.8449 C   0  0  0  0  0  0
  -27.4451    3.1024   -7.1712 C   0  0  0  0  0  0
  -28.8745    1.7734   -8.9340 C   0  0  0  0  0  0
  -24.3683    4.7301    1.8889 N   0  0  0  0  0  0
  -25.2083    5.8083    1.5793 C   0  0  0  0  0  0
  -25.0030    7.0441    2.2111 C   0  0  0  0  0  0
  -26.1520    4.6286   -0.4749 N   0  0  0  0  0  0
  -25.1929    3.4914   -2.4428 C   0  0  2  0  0  0
  -24.5471    5.6901   -1.6501 O   0  0  0  0  0  0
  -23.4763    2.1391   -3.5206 C   0  0  2  0  0  0
  -25.0793    3.8366   -3.8818 N   0  0  0  0  0  0
  -24.2793    1.0227   -3.8798 O   0  0  0  0  0  0
  -26.1060    4.3602   -4.6049 C   0  0  0  0  0  0
  -27.2047    4.5996   -4.0878 O   0  0  0  0  0  0
  -27.0578    4.3586   -6.9174 N   0  0  0  0  0  0
  -24.1652    6.6085   -5.6169 C   0  0  0  0  0  0
  -25.2705    6.5383   -7.8483 C   0  0  0  0  0  0
  -26.7883    2.1229   -6.7978 O   0  0  0  0  0  0
  -29.6589    1.7649   -7.6370 C   0  0  0  0  0  0
  -28.7637    2.9416   -7.9735 C   0  0  0  0  0  0
  -29.3727    4.0764   -8.3327 F   0  0  0  0  0  0
  -21.9911    7.0013    5.6668 C   0  0  0  0  0  0
  -20.8389    6.9697    6.3131 N   0  0  0  0  0  0
  -19.9503    6.2380    5.6977 C   0  0  0  0  0  0
  -20.4837    5.5120    4.2263 S   0  0  0  0  0  0
  -23.0881    7.8047    6.3339 C   0  0  0  0  0  0
  -25.8462    8.0844    1.8713 O   0  0  0  0  0  0
  -25.4052    9.4414    1.9773 C   0  0  0  0  0  0
  -24.1656    9.7618    1.1030 C   0  0  0  0  0  0
  -24.1204    9.1080   -0.3006 C   0  0  0  0  0  0
  -24.6780   10.0148   -1.4335 N   0  3  1  0  0  0
  -24.3825    9.3245   -2.7933 C   0  0  0  0  0  0
  -24.8741   10.2217   -3.9417 C   0  0  0  0  0  0
  -26.3760   10.5459   -3.8115 C   0  0  1  0  0  0
  -26.6923   11.1695   -2.4363 C   0  0  0  0  0  0
  -26.1940   10.2993   -1.2668 C   0  0  0  0  0  0
  -26.8801   11.4083   -4.9700 C   0  0  0  0  0  0
  -26.3797   12.7007   -5.1655 C   0  0  0  0  0  0
  -26.8480   13.4762   -6.2268 C   0  0  0  0  0  0
  -27.7937   12.9757   -7.1156 C   0  0  0  0  0  0
  -28.3185   11.6942   -6.9102 C   0  0  0  0  0  0
  -27.8573   10.9175   -5.8454 C   0  0  0  0  0  0
  -26.5810   14.7774   -6.6492 N   0  0  0  0  0  0
  -27.4528   15.1338   -7.7207 C   0  0  0  0  0  0
  -28.0596   13.9505   -8.0887 N   0  0  0  0  0  0
  -27.6040   16.2808   -8.2608 N   0  0  0  0  0  0
  -28.5444   16.4468   -9.2708 C   0  0  0  0  0  0
  -29.0368   15.1751   -9.9477 C   0  0  0  0  0  0
  -28.7741   13.9429   -9.3099 C   0  0  0  0  0  0
  -29.7010   15.1927  -11.1962 C   0  0  0  0  0  0
  -30.1070   13.9892  -11.7704 C   0  0  0  0  0  0
  -29.8435   12.7749  -11.1478 C   0  0  0  0  0  0
  -29.1702   12.7551   -9.9305 C   0  0  0  0  0  0
  -25.6816   15.7558   -6.0161 C   0  0  0  0  0  0
  -28.9884   17.5513   -9.5674 O   0  0  0  0  0  0
  -30.0737   16.7725  -12.2082 Br  0  0  0  0  0  0
  -24.2183   15.2860   -5.8420 C   0  0  0  0  0  0
  -23.8755   15.4967   -4.3600 C   0  0  0  0  0  0
  -24.8722   16.5448   -3.8688 C   0  0  0  0  0  0
  -26.1605   16.2148   -4.6244 C   0  0  0  0  0  0
  -24.1822   10.8989   -1.4242 H   0  0  0  0  0  0
  -23.8043    8.1176    3.6457 H   0  0  0  0  0  0
  -22.7116    4.0274    3.0430 H   0  0  0  0  0  0
  -26.4730    6.6054    0.0327 H   0  0  0  0  0  0
  -27.2818    5.5124    1.0988 H   0  0  0  0  0  0
  -24.1211    1.8320   -1.4355 H   0  0  0  0  0  0
  -23.1317    3.2319   -1.7384 H   0  0  0  0  0  0
  -23.7625    3.0459   -5.4544 H   0  0  0  0  0  0
  -23.0132    4.0970   -4.2369 H   0  0  0  0  0  0
  -25.0822    4.1554   -6.5157 H   0  0  0  0  0  0
  -26.3176    8.2771   -6.0676 H   0  0  0  0  0  0
  -27.5480    7.0596   -6.3197 H   0  0  0  0  0  0
  -26.7289    7.1874   -4.7655 H   0  0  0  0  0  0
  -29.4003    1.9314   -9.8765 H   0  0  0  0  0  0
  -28.0342    1.0854   -9.0452 H   0  0  0  0  0  0
  -26.6912    3.7797   -0.3764 H   0  0  0  0  0  0
  -26.1090    2.9265   -2.2603 H   0  0  0  0  0  0
  -22.4232    1.8482   -3.5578 H   0  0  0  0  0  0
  -24.2808    0.9419   -4.8453 H   0  0  0  0  0  0
  -27.6599    5.1048   -7.2329 H   0  0  0  0  0  0
  -23.8586    7.6363   -5.8139 H   0  0  0  0  0  0
  -24.2449    6.5137   -4.5333 H   0  0  0  0  0  0
  -23.3462    5.9697   -5.9497 H   0  0  0  0  0  0
  -24.9474    7.5654   -8.0259 H   0  0  0  0  0  0
  -24.5022    5.8878   -8.2684 H   0  0  0  0  0  0
  -26.1795    6.3972   -8.4341 H   0  0  0  0  0  0
  -29.3631    1.0714   -6.8474 H   0  0  0  0  0  0
  -30.7387    1.9170   -7.6634 H   0  0  0  0  0  0
  -18.9463    6.0831    6.0676 H   0  0  0  0  0  0
  -23.1415    7.6208    7.4080 H   0  0  0  0  0  0
  -22.9408    8.8767    6.2005 H   0  0  0  0  0  0
  -24.0754    7.5663    5.9390 H   0  0  0  0  0  0
  -25.2219    9.7076    3.0196 H   0  0  0  0  0  0
  -26.2463   10.0681    1.6872 H   0  0  0  0  0  0
  -23.2798    9.4292    1.6444 H   0  0  0  0  0  0
  -24.0467   10.8428    1.0282 H   0  0  0  0  0  0
  -24.6291    8.1438   -0.3549 H   0  0  0  0  0  0
  -23.0751    8.9421   -0.5724 H   0  0  0  0  0  0
  -24.8843    8.3529   -2.7927 H   0  0  0  0  0  0
  -23.3053    9.1547   -2.8638 H   0  0  0  0  0  0
  -24.6933    9.6914   -4.8771 H   0  0  0  0  0  0
  -24.2745   11.1325   -3.9676 H   0  0  0  0  0  0
  -26.9260    9.6038   -3.8783 H   0  0  0  0  0  0
  -27.7729   11.2759   -2.3256 H   0  0  0  0  0  0
  -26.2591   12.1666   -2.3473 H   0  0  0  0  0  0
  -26.3322   10.8378   -0.3308 H   0  0  0  0  0  0
  -26.7128    9.3394   -1.2072 H   0  0  0  0  0  0
  -25.6418   13.0979   -4.4860 H   0  0  0  0  0  0
  -29.0966   11.2765   -7.5295 H   0  0  0  0  0  0
  -28.2735    9.9293   -5.7034 H   0  0  0  0  0  0
  -30.6168   13.9952  -12.7250 H   0  0  0  0  0  0
  -30.1433   11.8490  -11.6209 H   0  0  0  0  0  0
  -28.9275   11.7971   -9.5061 H   0  0  0  0  0  0
  -25.6576   16.6551   -6.6397 H   0  0  0  0  0  0
  -23.5545   15.9184   -6.4347 H   0  0  0  0  0  0
  -24.0531   14.2462   -6.1304 H   0  0  0  0  0  0
  -22.8408   15.8123   -4.2137 H   0  0  0  0  0  0
  -24.0055   14.5679   -3.8019 H   0  0  0  0  0  0
  -24.5250   17.5470   -4.1298 H   0  0  0  0  0  0
  -25.0050   16.5179   -2.7858 H   0  0  0  0  0  0
  -26.6851   15.4192   -4.0915 H   0  0  0  0  0  0
  -26.8061   17.0933   -4.6764 H   0  0  0  0  0  0
  1  2  1  0  0  0
  1 16  2  0  0  0
  1 72  1  0  0  0
  2  3  2  0  0  0
  2  4  1  0  0  0
  3 14  1  0  0  0
  3 73  1  0  0  0
  4 32  2  0  0  0
  4 35  1  0  0  0
  5 15  1  0  0  0
  5 17  1  0  0  0
  5 74  1  0  0  0
  5 75  1  0  0  0
  6 17  1  0  0  0
  6 18  1  0  0  0
  6 19  2  0  0  0
  7 18  1  0  0  0
  7 20  1  0  0  0
  7 76  1  0  0  0
  7 77  1  0  0  0
  8 20  1  0  0  0
  8 21  1  0  0  0
  8 78  1  0  0  0
  8 79  1  0  0  0
  9 10  1  0  0  0
  9 23  1  0  0  0
  9 25  1  0  0  0
  9 80  1  0  0  0
 10 11  1  0  0  0
 10 26  1  0  0  0
 10 27  1  0  0  0
 11 81  1  0  0  0
 11 82  1  0  0  0
 11 83  1  0  0  0
 12 25  1  0  0  0
 12 28  2  0  0  0
 12 30  1  0  0  0
 13 29  1  0  0  0
 13 30  1  0  0  0
 13 84  1  0  0  0
 13 85  1  0  0  0
 14 15  2  0  0  0
 15 16  1  0  0  0
 16 37  1  0  0  0
 17 86  1  0  0  0
 18 21  1  0  0  0
 18 87  1  0  0  0
 20 22  1  0  0  0
 20 88  1  0  0  0
 21 23  1  0  0  0
 22 89  1  0  0  0
 23 24  2  0  0  0
 25 90  1  0  0  0
 26 91  1  0  0  0
 26 92  1  0  0  0
 26 93  1  0  0  0
 27 94  1  0  0  0
 27 95  1  0  0  0
 27 96  1  0  0  0
 29 30  1  0  0  0
 29 97  1  0  0  0
 29 98  1  0  0  0
 30 31  1  0  0  0
 32 33  1  0  0  0
 32 36  1  0  0  0
 33 34  2  0  0  0
 34 35  1  0  0  0
 34 99  1  0  0  0
 36100  1  0  0  0
 36101  1  0  0  0
 36102  1  0  0  0
 37 38  1  0  0  0
 38 39  1  0  0  0
 38103  1  0  0  0
 38104  1  0  0  0
 39 40  1  0  0  0
 39105  1  0  0  0
 39106  1  0  0  0
 40 41  1  0  0  0
 40107  1  0  0  0
 40108  1  0  0  0
 41 42  1  0  0  0
 41 46  1  0  0  0
 41 71  1  0  0  0
 42 43  1  0  0  0
 42109  1  0  0  0
 42110  1  0  0  0
 43 44  1  0  0  0
 43111  1  0  0  0
 43112  1  0  0  0
 44 45  1  0  0  0
 44 47  1  0  0  0
 44113  1  0  0  0
 45 46  1  0  0  0
 45114  1  0  0  0
 45115  1  0  0  0
 46116  1  0  0  0
 46117  1  0  0  0
 47 48  2  0  0  0
 47 52  1  0  0  0
 48 49  1  0  0  0
 48118  1  0  0  0
 49 50  2  0  0  0
 49 53  1  0  0  0
 50 51  1  0  0  0
 50 55  1  0  0  0
 51 52  2  0  0  0
 51119  1  0  0  0
 52120  1  0  0  0
 53 54  1  0  0  0
 53 64  1  0  0  0
 54 55  1  0  0  0
 54 56  2  0  0  0
 55 59  1  0  0  0
 56 57  1  0  0  0
 57 58  1  0  0  0
 57 65  2  0  0  0
 58 59  1  0  0  0
 58 60  2  0  0  0
 59 63  2  0  0  0
 60 61  1  0  0  0
 60 66  1  0  0  0
 61 62  2  0  0  0
 61121  1  0  0  0
 62 63  1  0  0  0
 62122  1  0  0  0
 63123  1  0  0  0
 64 67  1  0  0  0
 64 70  1  0  0  0
 64124  1  0  0  0
 67 68  1  0  0  0
 67125  1  0  0  0
 67126  1  0  0  0
 68 69  1  0  0  0
 68127  1  0  0  0
 68128  1  0  0  0
 69 70  1  0  0  0
 69129  1  0  0  0
 69130  1  0  0  0
 70131  1  0  0  0
 70132  1  0  0  0
M  CHG  1  41   1
M  END
$$$$
