8BEB_chainC_ligand_molecule
                    3D
 Schrodinger Suite 2023-4.
 36 39  0  0  1  0            999 V2000
    7.9480    1.9000  -17.3470 C   0  0  0  0  0  0
    6.5200    1.6590  -16.9500 C   0  0  0  0  0  0
    5.6420    2.7200  -16.9770 N   0  0  0  0  0  0
    4.4350    2.3180  -16.7120 C   0  0  0  0  0  0
    4.2820    0.6850  -16.2100 S   0  0  0  0  0  0
    5.9660    0.4640  -16.5470 C   0  0  0  0  0  0
    6.6260   -0.8500  -16.3880 C   0  0  0  0  0  0
    6.0620   -2.0210  -16.8950 C   0  0  0  0  0  0
    6.7020   -3.2400  -16.7430 C   0  0  0  0  0  0
    7.8520   -0.9410  -15.7340 C   0  0  0  0  0  0
    8.4830   -2.1600  -15.5820 C   0  0  0  0  0  0
    7.9110   -3.3280  -16.0630 C   0  0  0  0  0  0
    8.6670   -4.6420  -15.9270 C   0  0  0  0  0  0
    8.1680   -5.5450  -14.8790 N   0  0  0  0  0  0
    9.0160   -6.3970  -14.2730 C   0  0  0  0  0  0
   10.1570   -6.5860  -14.6980 O   0  0  0  0  0  0
    8.5010   -7.1390  -13.0360 C   0  0  2  0  0  0
    9.0950   -6.5860  -11.7300 C   0  0  0  0  0  0
    9.2800   -7.7980  -10.8260 C   0  0  1  0  0  0
    8.0540   -8.1800  -10.2180 O   0  0  0  0  0  0
    9.7000   -8.8830  -11.7970 C   0  0  0  0  0  0
    8.9250   -8.5430  -13.0030 N   0  0  0  0  0  0
    8.5870   -9.3790  -14.0050 C   0  0  0  0  0  0
    7.9010   -8.9930  -14.9380 O   0  0  0  0  0  0
    9.0900  -10.8210  -13.9270 C   0  0  2  0  0  0
   10.1420  -11.1350  -15.0080 C   0  0  0  0  0  0
   10.9750  -12.3310  -14.5660 C   0  0  0  0  0  0
   11.0590   -9.9560  -15.3220 C   0  0  0  0  0  0
    6.0830  -12.9290  -14.2890 C   0  0  0  0  0  0
    4.8550  -13.5520  -14.8750 C   0  0  0  0  0  0
    6.9350  -11.9630  -14.8770 C   0  0  0  0  0  0
    7.9010  -11.7390  -13.9700 C   0  0  0  0  0  0
    7.6720  -12.5010  -12.8790 O   0  0  0  0  0  0
    6.4930  -13.2590  -13.1020 N   0  0  0  0  0  0
    9.7224   -4.4340  -15.7510 H   0  0  0  0  0  0
    8.6601   -5.1626  -16.8846 H   0  0  0  0  0  0
  1  2  1  0  0  0
  2  3  1  0  0  0
  2  6  2  0  0  0
  3  4  2  0  0  0
  4  5  1  0  0  0
  5  6  1  0  0  0
  6  7  1  0  0  0
  7  8  1  0  0  0
  7 10  2  0  0  0
  8  9  2  0  0  0
  9 12  1  0  0  0
 10 11  1  0  0  0
 11 12  2  0  0  0
 12 13  1  0  0  0
 13 14  1  0  0  0
 13 35  1  0  0  0
 13 36  1  0  0  0
 14 15  1  0  0  0
 15 16  2  0  0  0
 15 17  1  0  0  0
 17 18  1  0  0  0
 17 22  1  0  0  0
 18 19  1  0  0  0
 19 20  1  0  0  0
 19 21  1  0  0  0
 21 22  1  0  0  0
 22 23  1  0  0  0
 23 24  2  0  0  0
 23 25  1  0  0  0
 25 26  1  0  0  0
 25 32  1  0  0  0
 26 27  1  0  0  0
 26 28  1  0  0  0
 29 30  1  0  0  0
 29 31  1  0  0  0
 29 34  2  0  0  0
 31 32  2  0  0  0
 32 33  1  0  0  0
 33 34  1  0  0  0
M  END
$$$$
