8FY2_chainD_molecule2_molecule1
                    3D
 Schrodinger Suite 2023-4.
 82 89  0  0  1  0            999 V2000
   57.5952   19.6428  -27.6743 Cl  0  0  0  0  0  0
   55.7220   21.1190  -26.3220 C   0  0  0  0  0  0
   51.7390   22.9830  -26.3900 C   0  0  0  0  0  0
   51.3290   24.3560  -25.7490 C   0  0  0  0  0  0
   50.1040   26.8620  -26.8500 C   0  0  0  0  0  0
   49.4880   27.8660  -27.6380 C   0  0  0  0  0  0
   48.3880   29.9970  -29.0150 O   0  0  0  0  0  0
   48.1760   30.7070  -32.3340 O   0  0  0  0  0  0
   55.5270   26.5150  -19.9660 Cl  0  0  0  0  0  0
   50.2580   31.9470  -32.2230 O   0  0  0  0  0  0
   49.2080   31.2790  -31.5510 S   0  0  0  0  0  0
   48.3540   32.4760  -30.5390 C   0  0  0  0  0  0
   49.0540   33.6280  -30.0980 C   0  0  0  0  0  0
   48.4060   34.5660  -29.3040 C   0  0  0  0  0  0
   49.2990   35.9990  -28.7530 S   0  0  0  0  0  0
   48.7290   36.4570  -27.5100 O   0  0  0  0  0  0
   49.0260   37.4000  -29.9280 C   0  0  0  0  0  0
   48.9070   38.5650  -29.2690 F   0  0  0  0  0  0
   47.8980   37.3150  -30.6690 F   0  0  0  0  0  0
   50.0260   37.5960  -30.8090 F   0  0  0  0  0  0
   50.7030   35.7030  -28.8320 O   0  0  0  0  0  0
   47.0000   32.3050  -30.1680 C   0  0  0  0  0  0
   46.3660   33.2750  -29.3560 C   0  0  0  0  0  0
   47.0760   34.4310  -28.9090 C   0  0  0  0  0  0
   46.5100   35.4020  -28.1210 N   0  0  0  0  0  0
   45.1830   35.3150  -27.5120 C   0  0  2  0  0  0
   44.7690   36.7190  -27.0050 C   0  0  0  0  0  0
   43.8470   36.7010  -25.7880 C   0  0  0  0  0  0
   42.8360   37.6980  -26.2710 N   0  0  1  0  0  0
   42.0980   37.8290  -24.9470 C   0  0  1  0  0  0
   43.1600   38.3010  -23.9180 C   0  0  0  0  0  0
   43.4840   39.6590  -24.2520 O   0  0  0  0  0  0
   42.7640   39.9270  -25.4330 C   0  0  2  0  0  0
   41.4670   39.1850  -25.1700 C   0  0  0  0  0  0
   43.4340   39.0380  -26.4710 C   0  0  0  0  0  0
   44.9290   34.1660  -26.4120 C   0  0  0  0  0  0
   46.0600   34.0940  -24.9860 S   0  0  0  0  0  0
   47.4740   33.2320  -25.5740 C   0  0  0  0  0  0
   48.6490   33.9300  -25.8580 C   0  0  0  0  0  0
   49.7910   33.2720  -26.3300 C   0  0  0  0  0  0
   49.7730   31.8900  -26.5200 C   0  0  0  0  0  0
   48.6040   31.1830  -26.2310 C   0  0  0  0  0  0
   47.4590   31.8450  -25.7610 C   0  0  0  0  0  0
   49.9540   30.0940  -30.6540 N   0  0  0  0  0  0
   49.4290   29.5820  -29.4630 C   0  0  0  0  0  0
   50.1710   28.5190  -28.7000 C   0  0  0  0  0  0
   51.5070   28.1370  -28.9340 C   0  0  0  0  0  0
   52.1390   27.1300  -28.1510 C   0  0  0  0  0  0
   51.4390   26.4820  -27.0930 C   0  0  0  0  0  0
   52.0270   25.5060  -26.3110 N   0  0  0  0  0  0
   53.4560   25.2500  -26.2630 C   0  0  0  0  0  0
   53.8540   23.9820  -27.0490 C   0  0  0  0  0  0
   53.2090   22.7650  -26.5100 N   0  0  0  0  0  0
   53.8050   22.4520  -25.2040 C   0  0  0  0  0  0
   55.3410   22.1150  -25.2710 C   0  0  0  0  0  0
   56.3510   22.7510  -24.6640 C   0  0  0  0  0  0
   56.1460   23.6700  -23.5040 C   0  0  0  0  0  0
   55.6190   23.1930  -22.2890 C   0  0  0  0  0  0
   55.4270   24.0640  -21.1950 C   0  0  0  0  0  0
   55.7590   25.4080  -21.3190 C   0  0  0  0  0  0
   56.2770   25.8960  -22.5120 C   0  0  0  0  0  0
   56.4680   25.0170  -23.6040 C   0  0  0  0  0  0
   57.7680   22.5270  -25.1110 C   0  0  0  0  0  0
   58.0830   21.0220  -25.3720 C   0  0  0  0  0  0
   56.9750   20.2150  -26.0900 C   0  0  2  0  0  0
   56.6958   19.3573  -25.4780 H   0  0  0  0  0  0
   56.5336   26.9406  -22.6084 H   0  0  0  0  0  0
   56.8701   25.3907  -24.5341 H   0  0  0  0  0  0
   55.0243   23.6908  -20.2650 H   0  0  0  0  0  0
   55.3568   22.1504  -22.1865 H   0  0  0  0  0  0
   52.0528   28.6261  -29.7273 H   0  0  0  0  0  0
   53.1614   26.8489  -28.3560 H   0  0  0  0  0  0
   49.5429   26.3872  -26.0587 H   0  0  0  0  0  0
   48.4671   28.1575  -27.4398 H   0  0  0  0  0  0
   46.5644   31.2804  -25.5435 H   0  0  0  0  0  0
   50.6445   31.3665  -26.8844 H   0  0  0  0  0  0
   48.5726   30.1122  -26.3684 H   0  0  0  0  0  0
   48.6898   34.9997  -25.7145 H   0  0  0  0  0  0
   50.6871   33.8343  -26.5474 H   0  0  0  0  0  0
   46.4501   31.4377  -30.5023 H   0  0  0  0  0  0
   45.3334   33.1460  -29.0672 H   0  0  0  0  0  0
   50.0865   33.7732  -30.3796 H   0  0  0  0  0  0
  1 65  1  0  0  0
  2 55  1  0  0  0
  2 65  1  0  0  0
  3  4  1  0  0  0
  3 53  1  0  0  0
  4 50  1  0  0  0
  5  6  1  0  0  0
  5 49  2  0  0  0
  5 73  1  0  0  0
  6 46  2  0  0  0
  6 74  1  0  0  0
  7 45  2  0  0  0
  8 11  2  0  0  0
  9 60  1  0  0  0
 10 11  2  0  0  0
 11 12  1  0  0  0
 11 44  1  0  0  0
 12 13  2  0  0  0
 12 22  1  0  0  0
 13 14  1  0  0  0
 13 82  1  0  0  0
 14 15  1  0  0  0
 14 24  2  0  0  0
 15 16  2  0  0  0
 15 17  1  0  0  0
 15 21  2  0  0  0
 17 18  1  0  0  0
 17 19  1  0  0  0
 17 20  1  0  0  0
 22 23  2  0  0  0
 22 80  1  0  0  0
 23 24  1  0  0  0
 23 81  1  0  0  0
 24 25  1  0  0  0
 25 26  1  0  0  0
 26 27  1  0  0  0
 26 36  1  0  0  0
 27 28  1  0  0  0
 28 29  1  0  0  0
 29 30  1  0  0  0
 29 35  1  0  0  0
 30 31  1  0  0  0
 30 34  1  0  0  0
 31 32  1  0  0  0
 32 33  1  0  0  0
 33 34  1  0  0  0
 33 35  1  0  0  0
 36 37  1  0  0  0
 37 38  1  0  0  0
 38 39  1  0  0  0
 38 43  2  0  0  0
 39 40  2  0  0  0
 39 78  1  0  0  0
 40 41  1  0  0  0
 40 79  1  0  0  0
 41 42  2  0  0  0
 41 76  1  0  0  0
 42 43  1  0  0  0
 42 77  1  0  0  0
 43 75  1  0  0  0
 44 45  1  0  0  0
 45 46  1  0  0  0
 46 47  1  0  0  0
 47 48  2  0  0  0
 47 71  1  0  0  0
 48 49  1  0  0  0
 48 72  1  0  0  0
 49 50  1  0  0  0
 50 51  1  0  0  0
 51 52  1  0  0  0
 52 53  1  0  0  0
 53 54  1  0  0  0
 54 55  1  0  0  0
 55 56  2  0  0  0
 56 57  1  0  0  0
 56 63  1  0  0  0
 57 58  2  0  0  0
 57 62  1  0  0  0
 58 59  1  0  0  0
 58 70  1  0  0  0
 59 60  2  0  0  0
 59 69  1  0  0  0
 60 61  1  0  0  0
 61 62  2  0  0  0
 61 67  1  0  0  0
 62 68  1  0  0  0
 63 64  1  0  0  0
 64 65  1  0  0  0
 65 66  1  0  0  0
M  END
$$$$
