8G1P_chainC_molecule1_molecule
                    3D
 Schrodinger Suite 2023-4.
 37 40  0  0  1  0            999 V2000
  -29.8120  -12.9540   32.3170 N   0  0  0  0  0  0
  -29.0560  -12.6040   30.1150 C   0  0  0  0  0  0
  -30.9550  -14.9980   30.9110 C   0  0  0  0  0  0
  -28.7890  -15.4910   29.6930 C   0  0  0  0  0  0
  -28.9850  -15.9040   32.2010 C   0  0  0  0  0  0
  -27.9540  -11.3920   28.2030 C   0  0  1  0  0  0
  -26.4750  -12.7810   29.5230 C   0  0  0  0  0  0
  -28.9840  -11.8440   27.1630 C   0  0  0  0  0  0
  -30.4980  -11.5480   22.7080 C   0  0  0  0  0  0
  -29.8510  -11.4130   21.4790 C   0  0  0  0  0  0
  -28.5840  -10.8330   21.4060 C   0  0  0  0  0  0
  -28.6010  -10.5260   23.8020 N   0  0  0  0  0  0
  -28.2970  -10.0950   18.9950 C   0  0  0  0  0  0
  -26.2540  -10.6840   18.2490 C   0  0  0  0  0  0
  -28.9310  -13.5400   31.3240 C   0  0  2  0  0  0
  -29.4110  -14.9750   31.0240 C   0  0  0  0  0  0
  -27.8590  -12.2520   29.2690 N   0  0  0  0  0  0
  -30.1100  -12.1200   29.8500 O   0  0  0  0  0  0
  -26.5430  -11.4190   27.5450 C   0  0  0  0  0  0
  -25.5960  -11.9170   28.7520 C   0  0  1  0  0  0
  -25.2030  -10.8450   29.5000 O   0  0  0  0  0  0
  -29.2900  -12.9880   27.0720 O   0  0  0  0  0  0
  -29.5870  -10.8290   26.2750 N   0  0  0  0  0  0
  -30.5640  -11.2360   25.2470 C   0  0  0  0  0  0
  -29.8700  -11.0960   23.8700 C   0  0  0  0  0  0
  -27.9630  -10.3990   22.5730 C   0  0  0  0  0  0
  -27.9030  -10.6930   20.1970 C   0  0  0  0  0  0
  -27.4230  -10.1080   18.0030 N   0  0  0  0  0  0
  -26.2950  -11.2470   19.8820 S   0  0  0  0  0  0
  -29.6810   -9.4410   18.7900 C   0  0  0  0  0  0
  -29.3090  -12.3740   33.5760 C   0  0  0  0  0  0
  -30.3680  -11.7680   34.5340 C   0  0  0  0  0  0
  -28.1520  -12.3770   33.8450 O   0  0  0  0  0  0
  -31.6150  -11.5010   34.0380 F   0  0  0  0  0  0
  -30.2770  -12.1720   36.0110 C   0  0  0  0  0  0
  -29.8290  -10.7720   35.5690 C   0  0  0  0  0  0
  -31.4779  -11.9996   22.7557 H   0  0  0  0  0  0
  1 15  1  0  0  0
  1 31  1  0  0  0
  2 15  1  0  0  0
  2 17  1  0  0  0
  2 18  2  0  0  0
  3 16  1  0  0  0
  4 16  1  0  0  0
  5 16  1  0  0  0
  6  8  1  0  0  0
  6 17  1  0  0  0
  6 19  1  0  0  0
  7 17  1  0  0  0
  7 20  1  0  0  0
  8 22  2  0  0  0
  8 23  1  0  0  0
  9 10  2  0  0  0
  9 25  1  0  0  0
  9 37  1  0  0  0
 10 11  1  0  0  0
 11 26  2  0  0  0
 11 27  1  0  0  0
 12 25  2  0  0  0
 12 26  1  0  0  0
 13 27  2  0  0  0
 13 28  1  0  0  0
 13 30  1  0  0  0
 14 28  2  0  0  0
 14 29  1  0  0  0
 15 16  1  0  0  0
 19 20  1  0  0  0
 20 21  1  0  0  0
 23 24  1  0  0  0
 24 25  1  0  0  0
 27 29  1  0  0  0
 31 32  1  0  0  0
 31 33  2  0  0  0
 32 34  1  0  0  0
 32 35  1  0  0  0
 32 36  1  0  0  0
 35 36  1  0  0  0
M  END
$$$$
