protac.smi:1
                    3D
 Schrodinger Suite 2023-4.
124131  0  0  1  0            999 V2000
   -6.3465   -3.3045    1.0569 C   0  0  0  0  0  0
   -5.4022   -3.5485    2.2170 C   0  0  0  0  0  0
   -4.2777   -2.8033    2.6105 C   0  0  0  0  0  0
   -3.5543   -3.5976    3.9920 S   0  0  0  0  0  0
   -4.8027   -4.7863    3.9092 C   0  0  0  0  0  0
   -5.6686   -4.6173    2.9469 N   0  0  0  0  0  0
   -3.6852   -1.5450    2.0601 C   0  0  0  0  0  0
   -4.5218   -0.5336    1.5831 C   0  0  0  0  0  0
   -3.9863    0.6400    1.0602 N   0  0  0  0  0  0
   -2.6025    0.8326    1.0157 C   0  0  0  0  0  0
   -1.7422   -0.1738    1.4858 C   0  0  0  0  0  0
   -2.2993   -1.3549    2.0070 C   0  0  0  0  0  0
   -0.3816    0.0594    1.4078 O   0  0  0  0  0  0
    0.5399   -0.9386    1.8412 C   0  0  0  0  0  0
    1.9775   -0.4080    1.7129 C   0  0  0  0  0  0
    2.3733   -0.0463    0.2866 C   0  0  0  0  0  0
    1.8862    1.1274   -0.2916 C   0  0  0  0  0  0
    2.2561    1.4756   -1.5855 C   0  0  0  0  0  0
    3.1349    0.6603   -2.2999 C   0  0  0  0  0  0
    3.6139   -0.5222   -1.7304 C   0  0  0  0  0  0
    3.2328   -0.8753   -0.4382 C   0  0  0  0  0  0
    3.5543    1.0608   -3.7055 C   0  0  0  0  0  0
    4.6111    2.1885   -3.7384 N   0  3  0  0  0  0
    4.8226    2.7017   -5.1762 C   0  0  0  0  0  0
    5.8828    3.8282   -5.1504 C   0  0  0  0  0  0
    7.1908    3.4099   -4.6085 N   0  0  0  0  0  0
    6.9724    2.8903   -3.2439 C   0  0  0  0  0  0
    5.9732    1.7124   -3.1920 C   0  0  0  0  0  0
    8.2204    2.9054   -5.4112 C   0  0  0  0  0  0
    7.9519    2.3884   -6.6886 C   0  0  0  0  0  0
    8.9923    1.8648   -7.4610 C   0  0  0  0  0  0
   10.2674    1.8361   -6.9910 N   0  0  0  0  0  0
   10.5530    2.3434   -5.7831 N   0  0  0  0  0  0
    9.5741    2.8748   -5.0064 C   0  0  0  0  0  0
   10.0202    3.4355   -3.8067 N   0  0  0  0  0  0
    8.7697    1.2830   -8.8179 C   0  0  0  0  0  0
    9.3204    0.0314   -9.1357 C   0  0  0  0  0  0
    9.1158   -0.5512  -10.3856 C   0  0  0  0  0  0
    8.3543    0.1104  -11.3446 C   0  0  0  0  0  0
    7.8035    1.3560  -11.0534 C   0  0  0  0  0  0
    8.0093    1.9442   -9.8036 C   0  0  0  0  0  0
    7.4696    3.1863   -9.5815 O   0  0  0  0  0  0
   -2.0579    2.1114    0.3849 C   0  0  0  0  0  0
   -1.3635    2.9744    1.3401 N   0  0  0  0  0  0
   -0.4684    3.9216    1.0076 C   0  0  0  0  0  0
   -0.1569    4.1784   -0.1580 O   0  0  0  0  0  0
    0.0741    4.7834    2.1694 C   0  0  2  0  0  0
   -0.6990    6.1118    2.3191 C   0  0  0  0  0  0
    0.3635    7.1461    2.6636 C   0  0  2  0  0  0
    1.5642    6.6505    1.8469 C   0  0  0  0  0  0
    1.4879    5.1894    1.9941 N   0  0  0  0  0  0
    2.5352    4.3506    2.2198 C   0  0  0  0  0  0
    2.3719    3.1671    2.5254 O   0  0  0  0  0  0
    4.0012    4.8510    2.0165 C   0  0  2  0  0  0
    4.7544    4.2033    0.7894 C   0  0  0  0  0  0
    6.1247    4.9114    0.6088 C   0  0  0  0  0  0
    3.9653    4.4198   -0.5292 C   0  0  0  0  0  0
    5.0502    2.6905    0.9714 C   0  0  0  0  0  0
    4.7475    4.6866    3.2723 N   0  0  0  0  0  0
    4.5920    5.4319    4.3811 C   0  0  0  0  0  0
    3.8039    6.3785    4.4420 O   0  0  0  0  0  0
    5.4641    5.0489    5.5943 C   0  0  0  0  0  0
    4.8600    5.2287    6.9722 C   0  0  0  0  0  0
    5.9427    6.1707    6.4931 C   0  0  0  0  0  0
    6.2894    4.0133    5.4197 F   0  0  0  0  0  0
    0.6524    7.0773    4.0512 O   0  0  0  0  0  0
   -5.9263   -2.6239    0.3168 H   0  0  0  0  0  0
   -7.2890   -2.8712    1.3921 H   0  0  0  0  0  0
   -6.5885   -4.2231    0.5202 H   0  0  0  0  0  0
   -4.8465   -5.6054    4.6114 H   0  0  0  0  0  0
   -5.5952   -0.6478    1.6193 H   0  0  0  0  0  0
   -1.6583   -2.1452    2.3659 H   0  0  0  0  0  0
    0.3522   -1.1885    2.8870 H   0  0  0  0  0  0
    0.4237   -1.8521    1.2550 H   0  0  0  0  0  0
    2.0996    0.4747    2.3417 H   0  0  0  0  0  0
    2.6766   -1.1437    2.1132 H   0  0  0  0  0  0
    1.2271    1.7745    0.2655 H   0  0  0  0  0  0
    1.8736    2.3874   -2.0210 H   0  0  0  0  0  0
    4.2871   -1.1632   -2.2811 H   0  0  0  0  0  0
    3.6128   -1.7872   -0.0006 H   0  0  0  0  0  0
    3.9815    0.2278   -4.2678 H   0  0  0  0  0  0
    2.6983    1.4510   -4.2594 H   0  0  0  0  0  0
    5.1127    1.8474   -5.7906 H   0  0  0  0  0  0
    3.8548    3.0757   -5.5134 H   0  0  0  0  0  0
    6.0117    4.2350   -6.1543 H   0  0  0  0  0  0
    5.5108    4.6614   -4.5513 H   0  0  0  0  0  0
    7.9044    2.5485   -2.7978 H   0  0  0  0  0  0
    6.6224    3.7046   -2.6072 H   0  0  0  0  0  0
    6.2937    0.8592   -3.7933 H   0  0  0  0  0  0
    5.8023    1.3862   -2.1660 H   0  0  0  0  0  0
    6.9471    2.3666   -7.0825 H   0  0  0  0  0  0
    9.3594    3.8891   -3.1928 H   0  0  0  0  0  0
   11.0072    3.4202   -3.5916 H   0  0  0  0  0  0
    9.9083   -0.5044   -8.4043 H   0  0  0  0  0  0
    9.5467   -1.5162  -10.6088 H   0  0  0  0  0  0
    8.1950   -0.3388  -12.3138 H   0  0  0  0  0  0
    7.2213    1.8686  -11.8055 H   0  0  0  0  0  0
    7.7077    3.5479   -8.7249 H   0  0  0  0  0  0
   -1.3551    1.8182   -0.3988 H   0  0  0  0  0  0
   -2.8539    2.6713   -0.1092 H   0  0  0  0  0  0
   -1.6794    2.9261    2.2976 H   0  0  0  0  0  0
   -0.0372    4.1626    3.0609 H   0  0  0  0  0  0
   -1.1508    6.4202    1.3732 H   0  0  0  0  0  0
   -1.5140    6.0555    3.0423 H   0  0  0  0  0  0
    0.0830    8.1725    2.4249 H   0  0  0  0  0  0
    1.3913    6.9248    0.8055 H   0  0  0  0  0  0
    2.4654    7.1413    2.2101 H   0  0  0  0  0  0
    4.0046    5.9184    1.8107 H   0  0  0  0  0  0
    6.6797    4.5008   -0.2362 H   0  0  0  0  0  0
    6.7647    4.7999    1.4850 H   0  0  0  0  0  0
    6.0073    5.9795    0.4199 H   0  0  0  0  0  0
    3.8790    5.4787   -0.7769 H   0  0  0  0  0  0
    2.9557    4.0138   -0.4790 H   0  0  0  0  0  0
    4.4566    3.9355   -1.3734 H   0  0  0  0  0  0
    5.5722    2.2812    0.1058 H   0  0  0  0  0  0
    4.1442    2.1003    1.0872 H   0  0  0  0  0  0
    5.6835    2.5003    1.8387 H   0  0  0  0  0  0
    5.4095    3.9242    3.2877 H   0  0  0  0  0  0
    3.8441    5.6132    7.0749 H   0  0  0  0  0  0
    5.1024    4.4974    7.7436 H   0  0  0  0  0  0
    5.6712    7.2031    6.2681 H   0  0  0  0  0  0
    6.9384    6.0942    6.9303 H   0  0  0  0  0  0
    1.5496    7.3889    4.1932 H   0  0  0  0  0  0
    4.2891    2.9586   -3.1691 H   0  0  0  0  0  0
  1  2  1  0  0  0
  1 67  1  0  0  0
  1 68  1  0  0  0
  1 69  1  0  0  0
  2  3  2  0  0  0
  2  6  1  0  0  0
  3  4  1  0  0  0
  3  7  1  0  0  0
  4  5  1  0  0  0
  5  6  2  0  0  0
  5 70  1  0  0  0
  7  8  2  0  0  0
  7 12  1  0  0  0
  8  9  1  0  0  0
  8 71  1  0  0  0
  9 10  2  0  0  0
 10 11  1  0  0  0
 10 43  1  0  0  0
 11 12  2  0  0  0
 11 13  1  0  0  0
 12 72  1  0  0  0
 13 14  1  0  0  0
 14 15  1  0  0  0
 14 73  1  0  0  0
 14 74  1  0  0  0
 15 16  1  0  0  0
 15 75  1  0  0  0
 15 76  1  0  0  0
 16 17  2  0  0  0
 16 21  1  0  0  0
 17 18  1  0  0  0
 17 77  1  0  0  0
 18 19  2  0  0  0
 18 78  1  0  0  0
 19 20  1  0  0  0
 19 22  1  0  0  0
 20 21  2  0  0  0
 20 79  1  0  0  0
 21 80  1  0  0  0
 22 23  1  0  0  0
 22 81  1  0  0  0
 22 82  1  0  0  0
 23 24  1  0  0  0
 23 28  1  0  0  0
 23124  1  0  0  0
 24 25  1  0  0  0
 24 83  1  0  0  0
 24 84  1  0  0  0
 25 26  1  0  0  0
 25 85  1  0  0  0
 25 86  1  0  0  0
 26 27  1  0  0  0
 26 29  1  0  0  0
 27 28  1  0  0  0
 27 87  1  0  0  0
 27 88  1  0  0  0
 28 89  1  0  0  0
 28 90  1  0  0  0
 29 30  2  0  0  0
 29 34  1  0  0  0
 30 31  1  0  0  0
 30 91  1  0  0  0
 31 32  2  0  0  0
 31 36  1  0  0  0
 32 33  1  0  0  0
 33 34  2  0  0  0
 34 35  1  0  0  0
 35 92  1  0  0  0
 35 93  1  0  0  0
 36 37  2  0  0  0
 36 41  1  0  0  0
 37 38  1  0  0  0
 37 94  1  0  0  0
 38 39  2  0  0  0
 38 95  1  0  0  0
 39 40  1  0  0  0
 39 96  1  0  0  0
 40 41  2  0  0  0
 40 97  1  0  0  0
 41 42  1  0  0  0
 42 98  1  0  0  0
 43 44  1  0  0  0
 43 99  1  0  0  0
 43100  1  0  0  0
 44 45  1  0  0  0
 44101  1  0  0  0
 45 46  2  0  0  0
 45 47  1  0  0  0
 47 48  1  0  0  0
 47 51  1  0  0  0
 47102  1  0  0  0
 48 49  1  0  0  0
 48103  1  0  0  0
 48104  1  0  0  0
 49 50  1  0  0  0
 49 66  1  0  0  0
 49105  1  0  0  0
 50 51  1  0  0  0
 50106  1  0  0  0
 50107  1  0  0  0
 51 52  1  0  0  0
 52 53  2  0  0  0
 52 54  1  0  0  0
 54 55  1  0  0  0
 54 59  1  0  0  0
 54108  1  0  0  0
 55 56  1  0  0  0
 55 57  1  0  0  0
 55 58  1  0  0  0
 56109  1  0  0  0
 56110  1  0  0  0
 56111  1  0  0  0
 57112  1  0  0  0
 57113  1  0  0  0
 57114  1  0  0  0
 58115  1  0  0  0
 58116  1  0  0  0
 58117  1  0  0  0
 59 60  1  0  0  0
 59118  1  0  0  0
 60 61  2  0  0  0
 60 62  1  0  0  0
 62 63  1  0  0  0
 62 65  1  0  0  0
 62 64  1  0  0  0
 63 64  1  0  0  0
 63119  1  0  0  0
 63120  1  0  0  0
 64121  1  0  0  0
 64122  1  0  0  0
 66123  1  0  0  0
M  CHG  1  23   1
M  END
$$$$
