6HR2_chainB_ligand_molecule
                    3D
 Schrodinger Suite 2023-4.
 68 71  0  0  1  0            999 V2000
  -31.9330   -7.8360  -19.9600 N   0  0  0  0  0  0
  -29.5870   -7.5470  -19.6800 C   0  0  0  0  0  0
  -29.4300  -10.2440  -18.3520 C   0  0  0  0  0  0
  -31.9120  -10.4060  -18.3510 C   0  0  0  0  0  0
  -30.6690  -10.4020  -20.5010 C   0  0  0  0  0  0
  -27.5580   -6.2750  -19.3980 C   0  0  1  0  0  0
  -28.6460   -7.0330  -17.3590 C   0  0  0  0  0  0
  -26.6940   -7.0830  -20.3620 C   0  0  0  0  0  0
  -22.6660   -7.6530  -22.1200 C   0  0  0  0  0  0
  -21.3550   -7.4670  -21.6990 C   0  0  0  0  0  0
  -21.0360   -6.4290  -20.8270 C   0  0  0  0  0  0
  -23.3540   -5.7870  -20.7830 N   0  0  0  0  0  0
  -18.5040   -6.0340  -21.2080 C   0  0  0  0  0  0
  -17.6070   -5.6520  -19.2330 C   0  0  0  0  0  0
  -30.8260   -8.2630  -19.1260 C   0  0  2  0  0  0
  -30.7050   -9.8170  -19.0870 C   0  0  0  0  0  0
  -28.6980   -7.0060  -18.8260 N   0  0  0  0  0  0
  -29.4420   -7.4610  -20.8940 O   0  0  0  0  0  0
  -26.7280   -5.8830  -18.1690 C   0  0  0  0  0  0
  -27.7470   -5.8500  -17.0390 C   0  0  1  0  0  0
  -28.5010   -4.6410  -17.1250 O   0  0  0  0  0  0
  -26.5670   -8.2950  -20.2190 O   0  0  0  0  0  0
  -26.1050   -6.3910  -21.3400 N   0  0  0  0  0  0
  -25.0920   -6.9700  -22.2090 C   0  0  0  0  0  0
  -23.6870   -6.8040  -21.6790 C   0  0  0  0  0  0
  -22.0530   -5.6030  -20.3620 C   0  0  0  0  0  0
  -19.6310   -6.1860  -20.4380 C   0  0  0  0  0  0
  -17.3620   -5.7140  -20.5030 N   0  0  0  0  0  0
  -19.2330   -5.9550  -18.7630 S   0  0  0  0  0  0
  -18.3970   -6.2130  -22.6870 C   0  0  0  0  0  0
  -33.0430   -7.2050  -19.5660 C   0  0  0  0  0  0
  -34.0820   -6.9400  -20.6520 C   0  0  0  0  0  0
  -33.2650   -6.8380  -18.4230 O   0  0  0  0  0  0
  -33.6580   -7.3780  -21.9250 F   0  0  0  0  0  0
  -35.5130   -7.1570  -20.3720 C   0  0  0  0  0  0
  -34.9890   -5.7740  -20.6700 C   0  0  0  0  0  0
  -31.7930   -7.9830  -20.9540 H   0  0  0  0  0  0
  -29.4010  -11.3180  -18.1770 H   0  0  0  0  0  0
  -29.3690   -9.7850  -17.3680 H   0  0  0  0  0  0
  -28.5180   -9.9730  -18.8810 H   0  0  0  0  0  0
  -31.8130  -11.4820  -18.2120 H   0  0  0  0  0  0
  -32.8390  -10.2470  -18.8990 H   0  0  0  0  0  0
  -32.0510   -9.9730  -17.3620 H   0  0  0  0  0  0
  -29.7890  -10.0800  -21.0530 H   0  0  0  0  0  0
  -31.5190  -10.1310  -21.1250 H   0  0  0  0  0  0
  -30.6380  -11.4890  -20.4910 H   0  0  0  0  0  0
  -27.9480   -5.3970  -19.9110 H   0  0  0  0  0  0
  -28.1980   -7.9510  -16.9840 H   0  0  0  0  0  0
  -29.6260   -6.9670  -16.8890 H   0  0  0  0  0  0
  -20.5270   -8.1100  -21.9900 H   0  0  0  0  0  0
  -16.8450   -5.4240  -18.4900 H   0  0  0  0  0  0
  -31.0350   -7.9670  -18.0990 H   0  0  0  0  0  0
  -26.2530   -4.9190  -18.3410 H   0  0  0  0  0  0
  -25.9230   -6.5820  -17.9480 H   0  0  0  0  0  0
  -27.2720   -5.9330  -16.0630 H   0  0  0  0  0  0
  -29.1910   -4.6980  -16.4150 H   0  0  0  0  0  0
  -26.3350   -5.4160  -21.5020 H   0  0  0  0  0  0
  -25.1000   -6.5130  -23.1950 H   0  0  0  0  0  0
  -25.3310   -8.0160  -22.3960 H   0  0  0  0  0  0
  -21.8230   -4.7970  -19.6670 H   0  0  0  0  0  0
  -17.3730   -6.0410  -23.0160 H   0  0  0  0  0  0
  -19.0290   -5.5050  -23.2200 H   0  0  0  0  0  0
  -18.6790   -7.2170  -23.0020 H   0  0  0  0  0  0
  -35.8350   -7.4190  -19.3650 H   0  0  0  0  0  0
  -36.1320   -7.6970  -21.0870 H   0  0  0  0  0  0
  -35.2390   -5.2830  -21.6100 H   0  0  0  0  0  0
  -34.9280   -5.0230  -19.8850 H   0  0  0  0  0  0
  -22.9068   -8.4605  -22.7956 H   0  0  0  0  0  0
  1 15  1  0  0  0
  1 31  1  0  0  0
  1 37  1  0  0  0
  2 15  1  0  0  0
  2 17  1  0  0  0
  2 18  2  0  0  0
  3 16  1  0  0  0
  3 38  1  0  0  0
  3 39  1  0  0  0
  3 40  1  0  0  0
  4 16  1  0  0  0
  4 41  1  0  0  0
  4 42  1  0  0  0
  4 43  1  0  0  0
  5 16  1  0  0  0
  5 44  1  0  0  0
  5 45  1  0  0  0
  5 46  1  0  0  0
  6  8  1  0  0  0
  6 17  1  0  0  0
  6 19  1  0  0  0
  6 47  1  0  0  0
  7 17  1  0  0  0
  7 20  1  0  0  0
  7 48  1  0  0  0
  7 49  1  0  0  0
  8 22  2  0  0  0
  8 23  1  0  0  0
  9 10  2  0  0  0
  9 25  1  0  0  0
  9 68  1  0  0  0
 10 11  1  0  0  0
 10 50  1  0  0  0
 11 26  2  0  0  0
 11 27  1  0  0  0
 12 25  2  0  0  0
 12 26  1  0  0  0
 13 27  2  0  0  0
 13 28  1  0  0  0
 13 30  1  0  0  0
 14 28  2  0  0  0
 14 29  1  0  0  0
 14 51  1  0  0  0
 15 16  1  0  0  0
 15 52  1  0  0  0
 19 20  1  0  0  0
 19 53  1  0  0  0
 19 54  1  0  0  0
 20 21  1  0  0  0
 20 55  1  0  0  0
 21 56  1  0  0  0
 23 24  1  0  0  0
 23 57  1  0  0  0
 24 25  1  0  0  0
 24 58  1  0  0  0
 24 59  1  0  0  0
 26 60  1  0  0  0
 27 29  1  0  0  0
 30 61  1  0  0  0
 30 62  1  0  0  0
 30 63  1  0  0  0
 31 32  1  0  0  0
 31 33  2  0  0  0
 32 34  1  0  0  0
 32 35  1  0  0  0
 32 36  1  0  0  0
 35 36  1  0  0  0
 35 64  1  0  0  0
 35 65  1  0  0  0
 36 66  1  0  0  0
 36 67  1  0  0  0
M  END
$$$$
