8QVU_chainE_molecule3_molecule
                    3D
 Schrodinger Suite 2023-4.
 42 45  0  0  1  0            999 V2000
  205.7920  164.0640  182.2270 C   0  0  0  0  0  0
  206.9850  163.4480  178.0460 C   0  0  0  0  0  0
  208.2130  164.3330  178.1510 C   0  0  0  0  0  0
  206.7710  163.0410  176.5960 C   0  0  0  0  0  0
  205.6590  165.3810  181.9370 N   0  0  0  0  0  0
  205.6550  165.5400  180.6320 N   0  0  0  0  0  0
  205.7860  164.3140  180.0830 N   0  0  0  0  0  0
  205.8760  163.3700  181.0360 C   0  0  0  0  0  0
  202.2470  163.6470  177.1140 C   0  0  2  0  0  0
  202.3860  162.4340  176.2140 C   0  0  0  0  0  0
  201.6370  164.7860  176.2890 C   0  0  0  0  0  0
  201.3330  161.6230  176.1790 N   0  0  0  0  0  0
  203.4000  162.2380  175.5620 O   0  0  0  0  0  0
  202.3030  166.0340  176.8420 C   0  0  2  0  0  0
  203.7240  165.5740  177.1260 C   0  0  0  0  0  0
  201.6460  166.4020  178.0450 O   0  0  0  0  0  0
  200.3250  159.6360  177.3870 O   0  0  0  0  0  0
  200.9310  159.2490  176.1670 C   0  0  0  0  0  0
  205.7540  164.1810  178.6230 C   0  0  2  0  0  0
  201.2860  160.4530  175.3140 C   0  0  1  0  0  0
  199.6270  160.2290  171.8990 C   0  0  0  0  0  0
  200.4580  159.9680  172.9740 C   0  0  0  0  0  0
  200.3250  160.6650  174.1660 C   0  0  0  0  0  0
  199.3320  161.6280  174.2550 C   0  0  0  0  0  0
  198.4980  161.8930  173.1860 C   0  0  0  0  0  0
  198.6310  161.1960  171.9920 C   0  0  0  0  0  0
  196.2200  161.2860  169.1130 N   0  0  0  0  0  0
  196.4380  162.5630  169.1350 C   0  0  0  0  0  0
  197.5400  163.1150  170.3270 S   0  0  0  0  0  0
  204.4490  163.4810  178.2350 C   0  0  0  0  0  0
  197.7360  161.4810  170.8550 C   0  0  0  0  0  0
  196.9540  160.6500  170.0920 C   0  0  0  0  0  0
  196.8150  159.1710  170.2310 C   0  0  0  0  0  0
  203.5420  164.1830  177.5360 N   0  0  0  0  0  0
  204.2330  162.3350  178.5910 O   0  0  0  0  0  0
  195.9370  163.2086  168.4289 H   0  0  0  0  0  0
  199.2159  162.1749  175.1790 H   0  0  0  0  0  0
  197.7320  162.6494  173.2732 H   0  0  0  0  0  0
  199.7570  159.6741  170.9816 H   0  0  0  0  0  0
  201.2247  159.2117  172.8927 H   0  0  0  0  0  0
  205.8151  163.7373  183.2562 H   0  0  0  0  0  0
  205.9886  162.2959  181.0437 H   0  0  0  0  0  0
  1  5  1  0  0  0
  1  8  2  0  0  0
  1 41  1  0  0  0
  2  3  1  0  0  0
  2  4  1  0  0  0
  2 19  1  0  0  0
  5  6  2  0  0  0
  6  7  1  0  0  0
  7  8  1  0  0  0
  7 19  1  0  0  0
  8 42  1  0  0  0
  9 10  1  0  0  0
  9 11  1  0  0  0
  9 34  1  0  0  0
 10 12  1  0  0  0
 10 13  2  0  0  0
 11 14  1  0  0  0
 12 20  1  0  0  0
 14 15  1  0  0  0
 14 16  1  0  0  0
 15 34  1  0  0  0
 17 18  1  0  0  0
 18 20  1  0  0  0
 19 30  1  0  0  0
 20 23  1  0  0  0
 21 22  1  0  0  0
 21 26  2  0  0  0
 21 39  1  0  0  0
 22 23  2  0  0  0
 22 40  1  0  0  0
 23 24  1  0  0  0
 24 25  2  0  0  0
 24 37  1  0  0  0
 25 26  1  0  0  0
 25 38  1  0  0  0
 26 31  1  0  0  0
 27 28  2  0  0  0
 27 32  1  0  0  0
 28 29  1  0  0  0
 28 36  1  0  0  0
 29 31  1  0  0  0
 30 34  1  0  0  0
 30 35  2  0  0  0
 31 32  2  0  0  0
 32 33  1  0  0  0
M  END
$$$$
