8BB5_chainC_ligand_molecule
                    3D
 Schrodinger Suite 2023-4.
 33 35  0  0  1  0            999 V2000
   10.2010   -4.3630  -27.8810 N   0  0  0  0  0  0
    7.4660   -6.0740  -27.2500 C   0  0  0  0  0  0
   10.0310   -3.5030  -22.0000 C   0  0  0  0  0  0
    7.3770   -1.1820  -34.2300 C   0  0  0  0  0  0
    7.3300   -8.3300  -26.4290 O   0  0  0  0  0  0
    8.4070   -5.9190  -25.1020 N   0  0  0  0  0  0
    6.7500   -7.0200  -26.3060 C   0  0  1  0  0  0
    8.4960   -4.7300  -20.5080 C   0  0  0  0  0  0
    5.3400   -1.8670  -34.7440 C   0  0  0  0  0  0
   10.4920   -5.3380  -24.6430 O   0  0  0  0  0  0
   10.3140   -6.4250  -22.1420 N   0  0  0  0  0  0
    7.0320   -6.3990  -24.9430 C   0  0  0  0  0  0
    7.6540   -3.7040  -22.6260 C   0  0  0  0  0  0
    7.1510   -1.9940  -33.1400 C   0  0  0  0  0  0
    9.4870   -8.5160  -21.7970 O   0  0  0  0  0  0
   10.3570   -7.6630  -21.6120 C   0  0  0  0  0  0
    9.1410   -5.7890  -22.7200 C   0  0  1  0  0  0
    8.8310   -4.4420  -21.9800 C   0  0  0  0  0  0
    9.3920   -5.6440  -24.2350 C   0  0  0  0  0  0
    8.7810   -5.7820  -26.5160 C   0  0  2  0  0  0
    9.2750   -4.3890  -26.9230 C   0  0  0  0  0  0
    8.7960   -3.3710  -26.4200 O   0  0  0  0  0  0
   10.5500   -3.1420  -28.5870 C   0  0  0  0  0  0
    9.6680   -2.8630  -29.7750 C   0  0  0  0  0  0
    9.5250   -1.5610  -30.2470 C   0  0  0  0  0  0
    8.7140   -1.2800  -31.3340 C   0  0  0  0  0  0
    8.9690   -3.8810  -30.4240 C   0  0  0  0  0  0
    8.1450   -3.6050  -31.5020 C   0  0  0  0  0  0
    8.0090   -2.2970  -31.9770 C   0  0  0  0  0  0
    8.6400   -0.4580  -34.5580 C   0  0  0  0  0  0
    5.5680   -2.7140  -33.2630 S   0  0  0  0  0  0
    6.3270   -1.1090  -35.1290 N   0  0  0  0  0  0
   11.1875   -7.9538  -20.9858 H   0  0  0  0  0  0
  1 21  1  0  0  0
  1 23  1  0  0  0
  2  7  1  0  0  0
  2 20  1  0  0  0
  3 18  1  0  0  0
  4 14  2  0  0  0
  4 30  1  0  0  0
  4 32  1  0  0  0
  5  7  1  0  0  0
  6 12  1  0  0  0
  6 19  1  0  0  0
  6 20  1  0  0  0
  7 12  1  0  0  0
  8 18  1  0  0  0
  9 31  1  0  0  0
  9 32  2  0  0  0
 10 19  2  0  0  0
 11 16  1  0  0  0
 11 17  1  0  0  0
 13 18  1  0  0  0
 14 29  1  0  0  0
 14 31  1  0  0  0
 15 16  2  0  0  0
 16 33  1  0  0  0
 17 18  1  0  0  0
 17 19  1  0  0  0
 20 21  1  0  0  0
 21 22  2  0  0  0
 23 24  1  0  0  0
 24 25  1  0  0  0
 24 27  2  0  0  0
 25 26  2  0  0  0
 26 29  1  0  0  0
 27 28  1  0  0  0
 28 29  2  0  0  0
M  END
$$$$
