8BB5_chainC_ligand_molecule1
                    3D
 Schrodinger Suite 2023-4.
 37 40  0  0  1  0            999 V2000
   16.4140   -1.4800   -8.1100 C   0  0  0  0  0  0
   18.3320   -0.7460   -6.7260 C   0  0  0  0  0  0
   18.7930   -0.6450   -5.2950 C   0  0  0  0  0  0
   11.1740    1.2460   -5.8820 F   0  0  0  0  0  0
   12.1340    2.1490   -5.7480 C   0  0  0  0  0  0
   13.1720    1.4550   -5.2520 F   0  0  0  0  0  0
   11.7140    3.0190   -4.8170 F   0  0  0  0  0  0
   12.4750    2.8210   -7.0470 C   0  0  0  0  0  0
   12.2110    4.1810   -7.1720 C   0  0  0  0  0  0
   12.5420    4.8080   -8.3850 C   0  0  0  0  0  0
   12.1740    6.0560   -8.5650 O   0  0  0  0  0  0
   13.1380    4.1750   -9.4170 N   0  0  0  0  0  0
   13.3930    2.8690   -9.2610 C   0  0  0  0  0  0
   13.0750    2.1270   -8.1180 C   0  0  0  0  0  0
   13.5160    0.6840   -8.0080 C   0  0  0  0  0  0
   12.7150   -0.1970   -7.6880 O   0  0  0  0  0  0
   14.7940    0.4280   -8.3940 N   0  0  0  0  0  0
   15.3390   -0.8350   -8.7460 C   0  0  0  0  0  0
   16.9110   -1.0700   -6.8340 N   0  0  0  0  0  0
   16.0100   -0.4250   -5.8780 C   0  0  0  0  0  0
   16.5850   -0.3050   -4.4950 C   0  0  0  0  0  0
   17.9310    0.2470   -4.5300 N   0  0  0  0  0  0
   18.4370    0.4090   -3.1920 C   0  0  0  0  0  0
   16.8920   -2.6620   -8.6700 C   0  0  0  0  0  0
   16.2920   -3.2170   -9.7930 C   0  0  0  0  0  0
   14.7300   -1.4080   -9.8670 C   0  0  0  0  0  0
   15.1840   -2.6210  -10.3940 C   0  0  0  0  0  0
   14.4260   -3.3070  -11.4820 C   0  0  0  0  0  0
   14.9470   -4.4170  -12.1460 C   0  0  0  0  0  0
   14.2110   -5.0910  -13.1160 C   0  0  0  0  0  0
   13.1420   -2.8850  -11.8480 C   0  0  0  0  0  0
   12.4030   -3.5560  -12.8140 C   0  0  0  0  0  0
   12.9180   -4.6810  -13.4530 C   0  0  0  0  0  0
   12.3512   -5.2324  -14.1886 H   0  0  0  0  0  0
   11.7647    4.7222   -6.3508 H   0  0  0  0  0  0
   13.3703    4.6860  -10.2566 H   0  0  0  0  0  0
   13.8773    2.3152  -10.0516 H   0  0  0  0  0  0
  1 18  2  0  0  0
  1 19  1  0  0  0
  1 24  1  0  0  0
  2  3  1  0  0  0
  2 19  1  0  0  0
  3 22  1  0  0  0
  4  5  1  0  0  0
  5  6  1  0  0  0
  5  7  1  0  0  0
  5  8  1  0  0  0
  8  9  2  0  0  0
  8 14  1  0  0  0
  9 10  1  0  0  0
  9 35  1  0  0  0
 10 11  2  0  0  0
 10 12  1  0  0  0
 12 13  1  0  0  0
 12 36  1  0  0  0
 13 14  2  0  0  0
 13 37  1  0  0  0
 14 15  1  0  0  0
 15 16  2  0  0  0
 15 17  1  0  0  0
 17 18  1  0  0  0
 18 26  1  0  0  0
 19 20  1  0  0  0
 20 21  1  0  0  0
 21 22  1  0  0  0
 22 23  1  0  0  0
 24 25  2  0  0  0
 25 27  1  0  0  0
 26 27  2  0  0  0
 27 28  1  0  0  0
 28 29  2  0  0  0
 28 31  1  0  0  0
 29 30  1  0  0  0
 30 33  2  0  0  0
 31 32  2  0  0  0
 32 33  1  0  0  0
 33 34  1  0  0  0
M  END
$$$$
