6HAX__chainB_ligand_molecule2
                    3D
 Schrodinger Suite 2023-4.
 21 23  0  0  1  0            999 V2000
  -33.4470  -17.6170   27.2880 N   0  0  0  0  0  0
  -32.9950  -17.6750   28.6870 C   0  0  0  0  0  0
  -34.1800  -17.5760   29.6510 C   0  0  0  0  0  0
  -35.3180  -16.9040   29.0140 N   0  0  0  0  0  0
  -35.8420  -17.6760   27.8820 C   0  0  0  0  0  0
  -34.7060  -18.3650   27.1310 C   0  0  0  0  0  0
  -36.2410  -16.2590   29.8860 C   0  0  0  0  0  0
  -37.5400  -16.7190   30.0960 C   0  0  0  0  0  0
  -38.3490  -16.0400   31.0130 C   0  0  0  0  0  0
  -37.8840  -14.9980   31.7160 N   0  0  0  0  0  0
  -36.6420  -14.5200   31.4980 N   0  0  0  0  0  0
  -35.8240  -15.1120   30.6200 C   0  0  0  0  0  0
  -34.6340  -14.5160   30.4820 N   0  0  0  0  0  0
  -39.7310  -16.4870   31.3450 C   0  0  0  0  0  0
  -40.5530  -15.7640   32.2280 C   0  0  0  0  0  0
  -41.8690  -16.1710   32.4690 C   0  0  0  0  0  0
  -42.3740  -17.2950   31.8360 C   0  0  0  0  0  0
  -41.6010  -17.9790   30.9240 C   0  0  0  0  0  0
  -40.2900  -17.5880   30.6850 C   0  0  0  0  0  0
  -40.0940  -14.7180   32.9630 O   0  0  0  0  0  0
  -33.5985  -16.6544   27.0223 H   0  0  0  0  0  0
  1  2  1  0  0  0
  1  6  1  0  0  0
  1 21  1  0  0  0
  2  3  1  0  0  0
  3  4  1  0  0  0
  4  5  1  0  0  0
  4  7  1  0  0  0
  5  6  1  0  0  0
  7  8  1  0  0  0
  7 12  2  0  0  0
  8  9  2  0  0  0
  9 10  1  0  0  0
  9 14  1  0  0  0
 10 11  2  0  0  0
 11 12  1  0  0  0
 12 13  1  0  0  0
 14 15  1  0  0  0
 14 19  2  0  0  0
 15 16  2  0  0  0
 15 20  1  0  0  0
 16 17  1  0  0  0
 17 18  2  0  0  0
 18 19  1  0  0  0
M  END
$$$$
