protac.smi:1
                    3D
 Schrodinger Suite 2023-4.
124131  0  0  1  0            999 V2000
   -5.2647   -1.4573    3.8271 C   0  0  0  0  0  0
   -4.7303   -2.5581    2.9335 C   0  0  0  0  0  0
   -5.3659   -3.7141    3.0119 N   0  0  0  0  0  0
   -4.8426   -4.6177    2.2274 C   0  0  0  0  0  0
   -3.4838   -4.0918    1.3009 S   0  0  0  0  0  0
   -3.6468   -2.5177    2.0424 C   0  0  0  0  0  0
   -2.7257   -1.4068    1.6656 C   0  0  0  0  0  0
   -3.2196   -0.1169    1.4576 C   0  0  0  0  0  0
   -2.4347    0.9331    1.1173 N   0  0  0  0  0  0
   -1.0987    0.7221    0.9733 C   0  0  0  0  0  0
   -0.2748    1.9464    0.5636 C   0  0  0  0  0  0
   -0.4267    3.1069    1.4433 N   0  0  0  0  0  0
   -1.3151    4.1025    1.2806 C   0  0  0  0  0  0
   -2.1479    4.1272    0.3718 O   0  0  0  0  0  0
   -1.3112    5.1933    2.3765 C   0  0  2  0  0  0
   -2.5385    5.0926    3.2936 C   0  0  0  0  0  0
   -3.5538    6.0785    2.7355 C   0  0  1  0  0  0
   -4.4971    6.5131    3.6921 O   0  0  0  0  0  0
   -2.7109    7.1798    2.0891 C   0  0  0  0  0  0
   -1.4094    6.5542    1.8065 N   0  0  0  0  0  0
   -0.4338    7.2546    1.1637 C   0  0  0  0  0  0
   -0.6154    8.4034    0.7522 O   0  0  0  0  0  0
    0.9694    6.6179    0.9304 C   0  0  1  0  0  0
    1.0567    6.3437   -0.5097 N   0  0  0  0  0  0
    1.5426    5.2292   -1.0829 C   0  0  0  0  0  0
    2.0183    4.2937   -0.4351 O   0  0  0  0  0  0
    1.4801    5.1727   -2.6230 C   0  0  0  0  0  0
    0.8749    6.2007   -3.2234 F   0  0  0  0  0  0
    1.3479    3.8099   -3.2713 C   0  0  0  0  0  0
    2.6615    4.5592   -3.3441 C   0  0  0  0  0  0
    2.1938    7.4506    1.4884 C   0  0  0  0  0  0
    3.4821    6.5876    1.4409 C   0  0  0  0  0  0
    1.9752    7.8519    2.9717 C   0  0  0  0  0  0
    2.4812    8.7361    0.6644 C   0  0  0  0  0  0
   -0.5052   -0.5360    1.1685 C   0  0  0  0  0  0
    0.8630   -0.6476    1.0163 O   0  0  0  0  0  0
    1.4812   -1.9312    1.0436 C   0  0  0  0  0  0
    2.9869   -1.7691    0.7704 C   0  0  0  0  0  0
    3.2812   -1.0361   -0.5321 C   0  0  0  0  0  0
    3.3398    0.3597   -0.5449 C   0  0  0  0  0  0
    3.5690    1.0356   -1.7386 C   0  0  0  0  0  0
    3.7545    0.3176   -2.9221 C   0  0  0  0  0  0
    3.9805    1.0595   -4.2312 C   0  0  0  0  0  0
    5.3483    1.7722   -4.3320 N   0  3  0  0  0  0
    5.4255    2.6170   -5.6198 C   0  0  0  0  0  0
    6.8109    3.3025   -5.6881 C   0  0  0  0  0  0
    7.9502    2.3638   -5.6675 N   0  0  0  0  0  0
    7.8456    1.5469   -4.4424 C   0  0  0  0  0  0
    6.5165    0.7650   -4.3453 C   0  0  0  0  0  0
    8.5200    1.8325   -6.8299 C   0  0  0  0  0  0
    7.8077    1.8132   -8.0395 C   0  0  0  0  0  0
    8.3854    1.2458   -9.1787 C   0  0  0  0  0  0
    9.6299    0.7007   -9.1357 N   0  0  0  0  0  0
   10.3388    0.7265   -7.9977 N   0  0  0  0  0  0
    9.8194    1.2785   -6.8709 C   0  0  0  0  0  0
   10.6880    1.3029   -5.7765 N   0  0  0  0  0  0
    7.6711    1.1728  -10.4876 C   0  0  0  0  0  0
    7.6331   -0.0411  -11.1916 C   0  0  0  0  0  0
    6.9553   -0.1513  -12.4048 C   0  0  0  0  0  0
    6.3019    0.9558  -12.9390 C   0  0  0  0  0  0
    6.3322    2.1721  -12.2611 C   0  0  0  0  0  0
    7.0130    2.2867  -11.0472 C   0  0  0  0  0  0
    7.0374    3.5160  -10.4373 O   0  0  0  0  0  0
    3.7050   -1.0787   -2.9086 C   0  0  0  0  0  0
    3.4677   -1.7550   -1.7148 C   0  0  0  0  0  0
   -1.3480   -1.6062    1.5171 C   0  0  0  0  0  0
   -4.5895   -0.6036    3.8835 H   0  0  0  0  0  0
   -5.4137   -1.7972    4.8529 H   0  0  0  0  0  0
   -6.2243   -1.0813    3.4708 H   0  0  0  0  0  0
   -5.2188   -5.6269    2.1495 H   0  0  0  0  0  0
   -4.2743    0.0966    1.5517 H   0  0  0  0  0  0
    0.7887    1.7128    0.5329 H   0  0  0  0  0  0
   -0.5491    2.2007   -0.4626 H   0  0  0  0  0  0
    0.1659    3.1225    2.2606 H   0  0  0  0  0  0
   -0.3862    5.0802    2.9438 H   0  0  0  0  0  0
   -2.9265    4.0799    3.4212 H   0  0  0  0  0  0
   -2.2429    5.3992    4.2989 H   0  0  0  0  0  0
   -4.1037    5.5508    1.9541 H   0  0  0  0  0  0
   -4.9986    7.2410    3.3174 H   0  0  0  0  0  0
   -3.2061    7.5744    1.2007 H   0  0  0  0  0  0
   -2.5733    7.9902    2.8067 H   0  0  0  0  0  0
    1.0088    5.6657    1.4536 H   0  0  0  0  0  0
    0.6821    7.0687   -1.1051 H   0  0  0  0  0  0
    1.2897    2.9149   -2.6500 H   0  0  0  0  0  0
    0.7393    3.7235   -4.1716 H   0  0  0  0  0  0
    3.5126    4.1904   -2.7708 H   0  0  0  0  0  0
    2.9673    4.9938   -4.2960 H   0  0  0  0  0  0
    4.3345    7.1142    1.8727 H   0  0  0  0  0  0
    3.7663    6.3299    0.4206 H   0  0  0  0  0  0
    3.3666    5.6582    2.0001 H   0  0  0  0  0  0
    1.8271    6.9764    3.6054 H   0  0  0  0  0  0
    1.1131    8.5071    3.1007 H   0  0  0  0  0  0
    2.8344    8.3935    3.3703 H   0  0  0  0  0  0
    3.3530    9.2654    1.0522 H   0  0  0  0  0  0
    1.6586    9.4489    0.6965 H   0  0  0  0  0  0
    2.6924    8.5137   -0.3822 H   0  0  0  0  0  0
    1.3377   -2.4043    2.0166 H   0  0  0  0  0  0
    1.0375   -2.5853    0.2904 H   0  0  0  0  0  0
    3.4535   -1.2252    1.5934 H   0  0  0  0  0  0
    3.4728   -2.7460    0.7609 H   0  0  0  0  0  0
    3.1913    0.9222    0.3658 H   0  0  0  0  0  0
    3.6004    2.1147   -1.7383 H   0  0  0  0  0  0
    3.9256    0.3967   -5.0975 H   0  0  0  0  0  0
    3.2349    1.8460   -4.3542 H   0  0  0  0  0  0
    5.2324    1.9508   -6.4621 H   0  0  0  0  0  0
    4.6224    3.3521   -5.5520 H   0  0  0  0  0  0
    6.8666    3.9294   -6.5792 H   0  0  0  0  0  0
    6.9151    3.9911   -4.8476 H   0  0  0  0  0  0
    8.6575    0.8247   -4.3792 H   0  0  0  0  0  0
    7.9604    2.1959   -3.5723 H   0  0  0  0  0  0
    6.3627    0.0854   -5.1860 H   0  0  0  0  0  0
    6.4566    0.2040   -3.4120 H   0  0  0  0  0  0
    6.8058    2.2093   -8.1042 H   0  0  0  0  0  0
   10.3879    1.7293   -4.9119 H   0  0  0  0  0  0
   11.6191    0.9239   -5.8762 H   0  0  0  0  0  0
    8.1262   -0.9158  -10.7922 H   0  0  0  0  0  0
    6.9351   -1.0955  -12.9288 H   0  0  0  0  0  0
    5.7757    0.8729  -13.8786 H   0  0  0  0  0  0
    5.8306    3.0299  -12.6855 H   0  0  0  0  0  0
    7.5839    3.5298   -9.6484 H   0  0  0  0  0  0
    3.8420   -1.6420   -3.8203 H   0  0  0  0  0  0
    3.4195   -2.8345   -1.7124 H   0  0  0  0  0  0
   -0.9431   -2.5926    1.6853 H   0  0  0  0  0  0
    5.4642    2.3857   -3.5376 H   0  0  0  0  0  0
  1  2  1  0  0  0
  1 67  1  0  0  0
  1 68  1  0  0  0
  1 69  1  0  0  0
  2  3  1  0  0  0
  2  6  2  0  0  0
  3  4  2  0  0  0
  4  5  1  0  0  0
  4 70  1  0  0  0
  5  6  1  0  0  0
  6  7  1  0  0  0
  7  8  2  0  0  0
  7 66  1  0  0  0
  8  9  1  0  0  0
  8 71  1  0  0  0
  9 10  2  0  0  0
 10 11  1  0  0  0
 10 35  1  0  0  0
 11 12  1  0  0  0
 11 72  1  0  0  0
 11 73  1  0  0  0
 12 13  1  0  0  0
 12 74  1  0  0  0
 13 14  2  0  0  0
 13 15  1  0  0  0
 15 16  1  0  0  0
 15 20  1  0  0  0
 15 75  1  0  0  0
 16 17  1  0  0  0
 16 76  1  0  0  0
 16 77  1  0  0  0
 17 18  1  0  0  0
 17 19  1  0  0  0
 17 78  1  0  0  0
 18 79  1  0  0  0
 19 20  1  0  0  0
 19 80  1  0  0  0
 19 81  1  0  0  0
 20 21  1  0  0  0
 21 22  2  0  0  0
 21 23  1  0  0  0
 23 24  1  0  0  0
 23 31  1  0  0  0
 23 82  1  0  0  0
 24 25  1  0  0  0
 24 83  1  0  0  0
 25 26  2  0  0  0
 25 27  1  0  0  0
 27 28  1  0  0  0
 27 29  1  0  0  0
 27 30  1  0  0  0
 29 30  1  0  0  0
 29 84  1  0  0  0
 29 85  1  0  0  0
 30 86  1  0  0  0
 30 87  1  0  0  0
 31 32  1  0  0  0
 31 33  1  0  0  0
 31 34  1  0  0  0
 32 88  1  0  0  0
 32 89  1  0  0  0
 32 90  1  0  0  0
 33 91  1  0  0  0
 33 92  1  0  0  0
 33 93  1  0  0  0
 34 94  1  0  0  0
 34 95  1  0  0  0
 34 96  1  0  0  0
 35 36  1  0  0  0
 35 66  2  0  0  0
 36 37  1  0  0  0
 37 38  1  0  0  0
 37 97  1  0  0  0
 37 98  1  0  0  0
 38 39  1  0  0  0
 38 99  1  0  0  0
 38100  1  0  0  0
 39 40  2  0  0  0
 39 65  1  0  0  0
 40 41  1  0  0  0
 40101  1  0  0  0
 41 42  2  0  0  0
 41102  1  0  0  0
 42 43  1  0  0  0
 42 64  1  0  0  0
 43 44  1  0  0  0
 43103  1  0  0  0
 43104  1  0  0  0
 44 45  1  0  0  0
 44 49  1  0  0  0
 44124  1  0  0  0
 45 46  1  0  0  0
 45105  1  0  0  0
 45106  1  0  0  0
 46 47  1  0  0  0
 46107  1  0  0  0
 46108  1  0  0  0
 47 48  1  0  0  0
 47 50  1  0  0  0
 48 49  1  0  0  0
 48109  1  0  0  0
 48110  1  0  0  0
 49111  1  0  0  0
 49112  1  0  0  0
 50 51  2  0  0  0
 50 55  1  0  0  0
 51 52  1  0  0  0
 51113  1  0  0  0
 52 53  2  0  0  0
 52 57  1  0  0  0
 53 54  1  0  0  0
 54 55  2  0  0  0
 55 56  1  0  0  0
 56114  1  0  0  0
 56115  1  0  0  0
 57 58  2  0  0  0
 57 62  1  0  0  0
 58 59  1  0  0  0
 58116  1  0  0  0
 59 60  2  0  0  0
 59117  1  0  0  0
 60 61  1  0  0  0
 60118  1  0  0  0
 61 62  2  0  0  0
 61119  1  0  0  0
 62 63  1  0  0  0
 63120  1  0  0  0
 64 65  2  0  0  0
 64121  1  0  0  0
 65122  1  0  0  0
 66123  1  0  0  0
M  CHG  1  44   1
M  END
$$$$
