5T35_chainD_molecule1_molecule
                    3D
 Schrodinger Suite 2023-4.
 34 36  0  0  1  0            999 V2000
   12.1900  -24.0970  -13.1860 C   0  0  0  0  0  0
   12.7800  -22.8740  -12.4670 C   0  0  0  0  0  0
   11.9740  -21.9220  -11.9440 N   0  0  0  0  0  0
   12.5910  -20.8930  -11.3580 C   0  0  0  0  0  0
   14.2020  -21.1670  -11.4740 S   0  0  0  0  0  0
   14.0880  -22.6490  -12.3090 C   0  0  0  0  0  0
   15.1210  -23.4320  -12.6950 C   0  0  0  0  0  0
   16.1730  -23.6240  -11.7980 C   0  0  0  0  0  0
   17.2690  -24.4240  -12.1270 C   0  0  0  0  0  0
   15.2070  -24.0710  -13.9460 C   0  0  0  0  0  0
   16.3100  -24.8760  -14.2750 C   0  0  0  0  0  0
   17.3690  -25.0570  -13.3730 C   0  0  0  0  0  0
   18.4570  -25.8660  -13.6930 C   0  0  0  0  0  0
   19.6910  -25.3240  -13.0650 N   0  0  0  0  0  0
   20.5260  -24.4390  -13.6640 C   0  0  0  0  0  0
   20.3610  -24.0100  -14.8110 O   0  0  0  0  0  0
   21.6220  -24.0140  -12.8590 C   0  0  2  0  0  0
   21.2120  -22.8140  -12.0060 C   0  0  0  0  0  0
   22.4830  -21.9950  -11.8410 C   0  0  1  0  0  0
   23.2650  -22.4900  -10.7380 O   0  0  0  0  0  0
   23.2540  -22.1880  -13.1480 C   0  0  0  0  0  0
   22.8690  -23.5530  -13.6170 N   0  0  0  0  0  0
   23.4900  -24.3530  -14.5060 C   0  0  0  0  0  0
   23.0970  -25.4920  -14.7610 O   0  0  0  0  0  0
   24.7910  -23.8610  -15.1550 C   0  0  2  0  0  0
   24.6610  -23.4100  -16.6370 C   0  0  0  0  0  0
   26.0730  -23.3150  -17.2250 C   0  0  0  0  0  0
   23.8280  -24.3700  -17.4950 C   0  0  0  0  0  0
   24.0030  -22.0330  -16.7370 C   0  0  0  0  0  0
   25.6310  -25.0530  -15.0980 N   0  0  0  0  0  0
   26.7590  -25.1800  -14.3920 C   0  0  0  0  0  0
   27.3250  -24.2720  -13.7710 O   0  0  0  0  0  0
   27.2527  -26.1386  -14.3309 H   0  0  0  0  0  0
   12.0113  -20.0911  -10.9253 H   0  0  0  0  0  0
  1  2  1  0  0  0
  2  3  1  0  0  0
  2  6  2  0  0  0
  3  4  2  0  0  0
  4  5  1  0  0  0
  4 34  1  0  0  0
  5  6  1  0  0  0
  6  7  1  0  0  0
  7  8  2  0  0  0
  7 10  1  0  0  0
  8  9  1  0  0  0
  9 12  2  0  0  0
 10 11  2  0  0  0
 11 12  1  0  0  0
 12 13  1  0  0  0
 13 14  1  0  0  0
 14 15  1  0  0  0
 15 16  2  0  0  0
 15 17  1  0  0  0
 17 18  1  0  0  0
 17 22  1  0  0  0
 18 19  1  0  0  0
 19 20  1  0  0  0
 19 21  1  0  0  0
 21 22  1  0  0  0
 22 23  1  0  0  0
 23 24  2  0  0  0
 23 25  1  0  0  0
 25 26  1  0  0  0
 25 30  1  0  0  0
 26 27  1  0  0  0
 26 28  1  0  0  0
 26 29  1  0  0  0
 30 31  1  0  0  0
 31 32  2  0  0  0
 31 33  1  0  0  0
M  END
$$$$
