7S4E_chainB_ligand3_molecule2
                    3D
 Schrodinger Suite 2023-4.
 21 23  0  0  1  0            999 V2000
   40.2740  -19.9950  -29.5390 C   0  0  0  0  0  0
   41.1410  -19.9400  -30.7680 C   0  0  0  0  0  0
   43.3220  -18.8490  -31.3070 C   0  0  0  0  0  0
   44.6020  -19.2830  -31.6470 C   0  0  0  0  0  0
   45.3340  -18.5520  -32.5710 C   0  0  0  0  0  0
   46.7200  -18.8940  -32.9910 C   0  0  0  0  0  0
   47.4400  -19.8870  -32.3330 C   0  0  0  0  0  0
   49.3260  -19.5210  -33.7640 C   0  0  0  0  0  0
   40.8310  -20.9670  -28.6040 N   0  0  0  0  0  0
   42.5310  -19.5980  -30.4460 N   0  0  0  0  0  0
   48.7260  -20.2040  -32.7200 C   0  0  0  0  0  0
   48.6490  -18.5290  -34.4250 C   0  0  0  0  0  0
   47.3520  -18.2100  -34.0470 C   0  0  0  0  0  0
   46.7190  -17.2320  -34.7330 O   0  0  0  0  0  0
   44.8290  -17.4420  -33.1200 N   0  0  0  0  0  0
   43.5730  -17.0350  -32.8480 N   0  0  0  0  0  0
   42.8210  -17.6830  -31.9680 C   0  0  0  0  0  0
   41.6220  -17.1350  -31.7630 N   0  0  0  0  0  0
   43.1100  -20.3170  -29.3010 C   0  0  0  0  0  0
   42.1410  -20.4970  -28.1540 C   0  0  0  0  0  0
   40.2132  -21.0643  -27.8110 H   0  0  0  0  0  0
  1  2  1  0  0  0
  1  9  1  0  0  0
  2 10  1  0  0  0
  3  4  1  0  0  0
  3 10  1  0  0  0
  3 17  2  0  0  0
  4  5  2  0  0  0
  5  6  1  0  0  0
  5 15  1  0  0  0
  6  7  2  0  0  0
  6 13  1  0  0  0
  7 11  1  0  0  0
  8 11  2  0  0  0
  8 12  1  0  0  0
  9 20  1  0  0  0
  9 21  1  0  0  0
 10 19  1  0  0  0
 12 13  2  0  0  0
 13 14  1  0  0  0
 15 16  2  0  0  0
 16 17  1  0  0  0
 17 18  1  0  0  0
 19 20  1  0  0  0
M  END
$$$$
