8DSO_chainB_ligand_molecule2
                    3D
 Schrodinger Suite 2023-4.
 59 63  0  0  1  0            999 V2000
  -53.5440   13.8550   30.8210 C   0  0  0  0  0  0
  -54.8330   14.5140   30.3610 C   0  0  0  0  0  0
  -56.0390   13.9720   31.0940 C   0  0  0  0  0  0
  -56.5120   14.6020   32.0320 O   0  0  0  0  0  0
  -56.5330   12.7700   30.7230 N   0  0  0  0  0  0
  -56.5190   12.1050   29.4160 C   0  0  0  0  0  0
  -57.9270   11.9900   28.8900 C   0  0  0  0  0  0
  -58.8150   11.2440   29.8780 C   0  0  0  0  0  0
  -58.6970   11.8070   31.2930 C   0  0  2  0  0  0
  -57.2450   11.9630   31.7120 C   0  0  0  0  0  0
  -59.3780   10.9640   32.2790 N   0  0  0  0  0  0
  -60.0580   11.3290   33.3950 C   0  0  0  0  0  0
  -60.3430   10.1540   34.1070 C   0  0  0  0  0  0
  -59.8290    9.1010   33.2870 C   0  0  0  0  0  0
  -59.2370    9.6020   32.2120 N   0  0  0  0  0  0
  -59.9540    7.6210   33.3980 C   0  0  0  0  0  0
  -61.2070    7.0220   33.4430 C   0  0  0  0  0  0
  -61.3340    5.6480   33.5400 C   0  0  0  0  0  0
  -60.2010    4.8520   33.6020 C   0  0  0  0  0  0
  -58.9420    5.4340   33.5340 C   0  0  0  0  0  0
  -58.8230    6.8100   33.4320 C   0  0  0  0  0  0
  -60.3800    3.4680   33.7560 O   0  0  0  0  0  0
  -59.5740    2.7410   34.6410 C   0  0  0  0  0  0
  -59.3660    3.1860   35.9400 C   0  0  0  0  0  0
  -58.5300    2.4650   36.7810 C   0  0  0  0  0  0
  -57.9190    1.3130   36.3390 C   0  0  0  0  0  0
  -58.1380    0.8700   35.0510 C   0  0  0  0  0  0
  -58.9650    1.5780   34.1920 C   0  0  0  0  0  0
  -61.0010   10.3310   35.3530 C   0  0  0  0  0  0
  -61.3400   11.5840   35.7280 N   0  0  0  0  0  0
  -61.0310   12.6020   34.9210 C   0  0  0  0  0  0
  -60.3900   12.5770   33.7490 N   0  0  0  0  0  0
  -61.2390    9.3330   36.2150 N   0  0  0  0  0  0
  -53.7800   12.8850   31.2480 H   0  0  0  0  0  0
  -54.9720   14.4690   29.2860 H   0  0  0  0  0  0
  -54.7310   15.5810   30.5560 H   0  0  0  0  0  0
  -55.8760   12.5510   28.6650 H   0  0  0  0  0  0
  -56.0930   11.1100   29.5460 H   0  0  0  0  0  0
  -57.9380   11.4940   27.9210 H   0  0  0  0  0  0
  -58.3410   12.9790   28.6970 H   0  0  0  0  0  0
  -58.5570   10.1880   29.8430 H   0  0  0  0  0  0
  -59.8510   11.2760   29.5430 H   0  0  0  0  0  0
  -59.1850   12.7800   31.3190 H   0  0  0  0  0  0
  -57.1670   12.3570   32.7230 H   0  0  0  0  0  0
  -56.7500   10.9960   31.7780 H   0  0  0  0  0  0
  -62.1030    7.6390   33.4040 H   0  0  0  0  0  0
  -62.3230    5.1970   33.5710 H   0  0  0  0  0  0
  -58.0490    4.8090   33.5530 H   0  0  0  0  0  0
  -57.8300    7.2530   33.3830 H   0  0  0  0  0  0
  -59.8480    4.0850   36.3210 H   0  0  0  0  0  0
  -58.3590    2.8140   37.7980 H   0  0  0  0  0  0
  -57.2660    0.7510   37.0050 H   0  0  0  0  0  0
  -57.6600   -0.0420   34.6980 H   0  0  0  0  0  0
  -59.1370    1.2290   33.1760 H   0  0  0  0  0  0
  -61.3540   13.5780   35.2780 H   0  0  0  0  0  0
  -60.6630    8.4960   36.2170 H   0  0  0  0  0  0
  -62.0000    9.3740   36.8900 H   0  0  0  0  0  0
  -53.0674   14.4784   31.5775 H   0  0  0  0  0  0
  -52.8787   13.7238   29.9676 H   0  0  0  0  0  0
  1  2  1  0  0  0
  1 34  1  0  0  0
  1 58  1  0  0  0
  1 59  1  0  0  0
  2  3  1  0  0  0
  2 35  1  0  0  0
  2 36  1  0  0  0
  3  4  2  0  0  0
  3  5  1  0  0  0
  5  6  1  0  0  0
  5 10  1  0  0  0
  6  7  1  0  0  0
  6 37  1  0  0  0
  6 38  1  0  0  0
  7  8  1  0  0  0
  7 39  1  0  0  0
  7 40  1  0  0  0
  8  9  1  0  0  0
  8 41  1  0  0  0
  8 42  1  0  0  0
  9 10  1  0  0  0
  9 11  1  0  0  0
  9 43  1  0  0  0
 10 44  1  0  0  0
 10 45  1  0  0  0
 11 12  1  0  0  0
 11 15  1  0  0  0
 12 13  1  0  0  0
 12 32  2  0  0  0
 13 14  1  0  0  0
 13 29  2  0  0  0
 14 15  2  0  0  0
 14 16  1  0  0  0
 16 17  1  0  0  0
 16 21  2  0  0  0
 17 18  2  0  0  0
 17 46  1  0  0  0
 18 19  1  0  0  0
 18 47  1  0  0  0
 19 20  2  0  0  0
 19 22  1  0  0  0
 20 21  1  0  0  0
 20 48  1  0  0  0
 21 49  1  0  0  0
 22 23  1  0  0  0
 23 24  1  0  0  0
 23 28  2  0  0  0
 24 25  2  0  0  0
 24 50  1  0  0  0
 25 26  1  0  0  0
 25 51  1  0  0  0
 26 27  2  0  0  0
 26 52  1  0  0  0
 27 28  1  0  0  0
 27 53  1  0  0  0
 28 54  1  0  0  0
 29 30  1  0  0  0
 29 33  1  0  0  0
 30 31  2  0  0  0
 31 32  1  0  0  0
 31 55  1  0  0  0
 33 56  1  0  0  0
 33 57  1  0  0  0
M  END
$$$$
