7JTO_molecule1
                    3D
 Schrodinger Suite 2023-4.
171178  0  0  1  0            999 V2000
   -6.5153  -10.6108   14.4932 C   0  0  0  0  0  0
   -6.0755  -10.8977   15.7959 C   0  0  0  0  0  0
   -5.2066  -12.6307   14.8007 C   0  0  0  0  0  0
   -7.3084   -9.4661   13.9476 C   0  0  0  0  0  0
   -8.2733   -9.6648   12.9542 C   0  0  0  0  0  0
   -7.8137   -7.0983   13.9420 C   0  0  0  0  0  0
   -9.0044   -8.5884   12.4572 C   0  0  0  0  0  0
   -8.7661   -7.2993   12.9400 C   0  0  0  0  0  0
   -9.5977   -6.1273   12.4298 C   0  0  0  0  0  0
   -8.0842   -4.5178   11.2718 C   0  0  0  0  0  0
   -7.5011   -4.0723    9.9048 C   0  0  1  0  0  0
   -7.0846   -8.1763   14.4373 C   0  0  0  0  0  0
   -5.9589  -11.8896   13.4363 S   0  0  0  0  0  0
   -5.3583  -11.9991   15.9329 N   0  0  0  0  0  0
   -9.0065   -5.4896   11.2509 N   0  0  0  0  0  0
   -7.6397   -4.0596   12.3266 O   0  0  0  0  0  0
   -7.3907   -2.5999    9.7523 N   0  0  0  0  0  0
   -5.9747   -2.2147    9.6139 C   0  0  0  0  0  0
   -5.3332   -3.4543    8.9779 C   0  0  1  0  0  0
   -6.0607   -4.5919    9.6738 C   0  0  0  0  0  0
   -8.4694   -1.7922    9.5628 C   0  0  0  0  0  0
   -5.6248   -3.4882    7.5893 O   0  0  0  0  0  0
   -9.6201   -2.2498    9.5425 O   0  0  0  0  0  0
   -8.2860   -0.2392    9.4629 C   0  0  2  0  0  0
   -8.3638    0.5161   10.8498 C   0  0  0  0  0  0
   -9.2107    0.3414    8.4715 N   0  0  0  0  0  0
   -9.7636    0.3812   11.5039 C   0  0  0  0  0  0
   -7.3044    0.0092   11.8593 C   0  0  0  0  0  0
   -8.1048    2.0312   10.6477 C   0  0  0  0  0  0
   -9.1630    0.1458    7.1464 C   0  0  0  0  0  0
  -10.2639    0.7638    6.2685 C   0  0  0  0  0  0
  -11.1614    1.8590    6.9055 C   0  0  0  0  0  0
   -8.2735   -0.5158    6.6097 O   0  0  0  0  0  0
  -10.4254    3.1792    7.2137 C   0  0  0  0  0  0
  -11.3229    4.2077    7.9287 C   0  0  0  0  0  0
  -10.6096    5.5247    8.2961 C   0  0  0  0  0  0
   -9.5017    5.3579    9.3539 C   0  0  0  0  0  0
   -8.9095    6.6974    9.8311 C   0  0  0  0  0  0
   -7.7028    6.5430   10.7796 C   0  0  0  0  0  0
   -8.0525    5.9117   12.1517 C   0  0  0  0  0  0
   -6.8512    5.7002   13.0806 C   0  0  0  0  0  0
   -6.9640    4.7236   13.9864 N   0  0  0  0  0  0
   -5.8459    6.4046   12.9941 O   0  0  0  0  0  0
   -5.9446    4.3603   14.9785 C   0  0  0  0  0  0
   -5.9607    5.2590   16.2422 C   0  0  0  0  0  0
   -7.1079    5.0261   17.1408 N   0  0  2  0  0  0
   -7.1763    6.1033   18.1487 C   0  0  0  0  0  0
   -8.3961    5.9176   19.0928 C   0  0  0  0  0  0
   -8.3168    4.6223   19.7930 N   0  0  0  0  0  0
   -8.2456    3.5358   18.7987 C   0  0  0  0  0  0
   -7.0266    3.7336   17.8561 C   0  0  0  0  0  0
   -9.3671    4.4305   20.8104 C   0  0  0  0  0  0
  -10.8032    4.4131   20.2792 C   0  0  0  0  0  0
  -11.5279    5.6049   20.1589 C   0  0  0  0  0  0
  -12.8285    5.6227   19.6310 C   0  0  0  0  0  0
  -13.3854    4.4051   19.2120 C   0  0  0  0  0  0
  -12.6690    3.2132   19.3141 C   0  0  0  0  0  0
  -11.3795    3.2176   19.8407 C   0  0  0  0  0  0
  -13.5955    6.9007   19.5171 C   0  0  0  0  0  0
  -13.4556    7.9144   20.4730 C   0  0  0  0  0  0
  -14.1745    9.1174   20.3849 C   0  0  0  0  0  0
  -15.0486    9.3340   19.2942 C   0  0  0  0  0  0
  -15.1966    8.3103   18.3510 C   0  0  0  0  0  0
  -14.4832    7.1186   18.4582 C   0  0  0  0  0  0
  -15.7605   10.5231   19.1181 N   0  0  0  0  0  0
  -17.1358   10.5662   18.5857 C   0  0  0  0  0  0
  -18.0069   11.7056   19.1611 C   0  0  0  0  0  0
  -17.2899   13.0546   18.9279 N   0  3  0  0  0  0
  -15.9149   13.0072   19.6306 C   0  0  0  0  0  0
  -15.0972   11.8394   19.0363 C   0  0  0  0  0  0
  -18.1429   14.2298   19.4661 C   0  0  0  0  0  0
  -14.0696   10.0961   21.3945 N   0  0  0  0  0  0
  -12.9751   10.4812   22.0736 C   0  0  0  0  0  0
  -13.2253   11.5554   23.0127 C   0  0  0  0  0  0
  -14.1974   11.4348   23.9530 C   0  0  0  0  0  0
  -14.4459   12.3738   24.9162 N   0  0  0  0  0  0
  -13.7181   13.5017   25.0553 C   0  0  0  0  0  0
  -12.7357   13.7087   24.0058 C   0  0  0  0  0  0
  -12.4380   12.8158   23.0140 C   0  0  0  0  0  0
  -11.3913   13.1654   21.9300 C   0  0  0  0  0  0
  -11.8553    9.9941   21.9217 O   0  0  0  0  0  0
  -13.8674   14.2576   26.0155 O   0  0  0  0  0  0
   -6.3248  -10.1230   17.0734 C   0  0  0  0  0  0
  -11.0737   14.4626   21.9591 F   0  0  0  0  0  0
  -10.2748   12.4650   22.1286 F   0  0  0  0  0  0
  -11.8706   12.9007   20.7129 F   0  0  0  0  0  0
  -12.2225   14.6551   24.0600 H   0  0  0  0  0  0
  -14.8229   10.5550   24.0849 H   0  0  0  0  0  0
  -15.1034   12.2351   25.6666 H   0  0  0  0  0  0
  -17.1385   13.1691   17.9316 H   0  0  0  0  0  0
   -4.6543  -13.5552   14.7031 H   0  0  0  0  0  0
   -8.4693  -10.6561   12.5696 H   0  0  0  0  0  0
   -7.6285   -6.1055   14.3300 H   0  0  0  0  0  0
   -9.7523   -8.7614   11.6951 H   0  0  0  0  0  0
   -9.7428   -5.4087   13.2415 H   0  0  0  0  0  0
  -10.6001   -6.4815   12.1797 H   0  0  0  0  0  0
   -8.1954   -4.4754    9.1652 H   0  0  0  0  0  0
   -6.3369   -8.0024   15.1983 H   0  0  0  0  0  0
   -9.2615   -5.8811   10.3554 H   0  0  0  0  0  0
   -5.5256   -2.0827   10.5995 H   0  0  0  0  0  0
   -5.7526   -1.3464    8.9950 H   0  0  0  0  0  0
   -4.2479   -3.4465    9.1070 H   0  0  0  0  0  0
   -6.0238   -5.5454    9.1451 H   0  0  0  0  0  0
   -5.5473   -4.7605   10.6238 H   0  0  0  0  0  0
   -5.3297   -4.3422    7.2397 H   0  0  0  0  0  0
   -7.3012   -0.0336    9.0507 H   0  0  0  0  0  0
   -9.9768    0.8711    8.8575 H   0  0  0  0  0  0
   -9.8089    0.9058   12.4596 H   0  0  0  0  0  0
  -10.5532    0.8016   10.8803 H   0  0  0  0  0  0
  -10.0217   -0.6579   11.7104 H   0  0  0  0  0  0
   -7.3514    0.5598   12.8001 H   0  0  0  0  0  0
   -7.4449   -1.0416   12.1151 H   0  0  0  0  0  0
   -6.2912    0.1312   11.4745 H   0  0  0  0  0  0
   -8.0628    2.5630   11.5992 H   0  0  0  0  0  0
   -7.1582    2.2161   10.1382 H   0  0  0  0  0  0
   -8.8926    2.5083   10.0661 H   0  0  0  0  0  0
  -10.8941   -0.0673    5.9516 H   0  0  0  0  0  0
   -9.8021    1.1517    5.3601 H   0  0  0  0  0  0
  -11.6444    1.4719    7.8051 H   0  0  0  0  0  0
  -11.9818    2.0743    6.2180 H   0  0  0  0  0  0
  -10.0473    3.6104    6.2849 H   0  0  0  0  0  0
   -9.5464    2.9752    7.8228 H   0  0  0  0  0  0
  -11.7437    3.7645    8.8333 H   0  0  0  0  0  0
  -12.1772    4.4381    7.2893 H   0  0  0  0  0  0
  -11.3558    6.2273    8.6716 H   0  0  0  0  0  0
  -10.1970    5.9837    7.3959 H   0  0  0  0  0  0
   -8.6976    4.7427    8.9485 H   0  0  0  0  0  0
   -9.9075    4.8113   10.2058 H   0  0  0  0  0  0
   -9.6847    7.2941   10.3155 H   0  0  0  0  0  0
   -8.5924    7.2744    8.9604 H   0  0  0  0  0  0
   -7.2631    7.5300   10.9391 H   0  0  0  0  0  0
   -6.9315    5.9509   10.2820 H   0  0  0  0  0  0
   -8.5428    4.9498   12.0065 H   0  0  0  0  0  0
   -8.7611    6.5495   12.6801 H   0  0  0  0  0  0
   -7.8353    4.2138   14.0265 H   0  0  0  0  0  0
   -4.9454    4.3780   14.5361 H   0  0  0  0  0  0
   -6.1002    3.3153   15.2452 H   0  0  0  0  0  0
   -5.8853    6.3047   15.9350 H   0  0  0  0  0  0
   -5.0541    5.0492   16.8151 H   0  0  0  0  0  0
   -7.2677    7.0704   17.6499 H   0  0  0  0  0  0
   -6.2569    6.1488   18.7378 H   0  0  0  0  0  0
   -9.3182    5.9923   18.5121 H   0  0  0  0  0  0
   -8.4178    6.7334   19.8178 H   0  0  0  0  0  0
   -9.1596    3.4917   18.2024 H   0  0  0  0  0  0
   -8.1566    2.5724   19.3044 H   0  0  0  0  0  0
   -6.0999    3.6605   18.4304 H   0  0  0  0  0  0
   -7.0146    2.9032   17.1501 H   0  0  0  0  0  0
   -9.2778    5.2238   21.5558 H   0  0  0  0  0  0
   -9.1756    3.4934   21.3378 H   0  0  0  0  0  0
  -11.0619    6.5293   20.4714 H   0  0  0  0  0  0
  -14.3886    4.3695   18.8101 H   0  0  0  0  0  0
  -13.1144    2.2847   18.9837 H   0  0  0  0  0  0
  -10.8296    2.2887   19.9083 H   0  0  0  0  0  0
  -12.8071    7.7443   21.3196 H   0  0  0  0  0  0
  -15.8538    8.4423   17.5038 H   0  0  0  0  0  0
  -14.6148    6.3677   17.6922 H   0  0  0  0  0  0
  -17.6351    9.6123   18.7688 H   0  0  0  0  0  0
  -17.0891   10.6674   17.4994 H   0  0  0  0  0  0
  -18.1843   11.5859   20.2329 H   0  0  0  0  0  0
  -18.9751   11.7590   18.6574 H   0  0  0  0  0  0
  -16.0765   12.8976   20.7058 H   0  0  0  0  0  0
  -15.4242   13.9675   19.4531 H   0  0  0  0  0  0
  -14.9059   12.0499   17.9819 H   0  0  0  0  0  0
  -14.1022   11.8159   19.4821 H   0  0  0  0  0  0
  -17.6057   15.1589   19.2676 H   0  0  0  0  0  0
  -19.0947   14.2317   18.9320 H   0  0  0  0  0  0
  -18.3028   14.0981   20.5380 H   0  0  0  0  0  0
  -14.8421   10.7424   21.4357 H   0  0  0  0  0  0
   -6.6002  -10.7736   17.9048 H   0  0  0  0  0  0
   -5.4419   -9.5637   17.3844 H   0  0  0  0  0  0
   -7.1381   -9.4049   16.9713 H   0  0  0  0  0  0
  1  2  2  0  0  0
  1  4  1  0  0  0
  1 13  1  0  0  0
  2 14  1  0  0  0
  2 83  1  0  0  0
  3 13  1  0  0  0
  3 14  2  0  0  0
  3 91  1  0  0  0
  4  5  1  0  0  0
  4 12  2  0  0  0
  5  7  2  0  0  0
  5 92  1  0  0  0
  6  8  2  0  0  0
  6 12  1  0  0  0
  6 93  1  0  0  0
  7  8  1  0  0  0
  7 94  1  0  0  0
  8  9  1  0  0  0
  9 15  1  0  0  0
  9 95  1  0  0  0
  9 96  1  0  0  0
 10 11  1  0  0  0
 10 15  1  0  0  0
 10 16  2  0  0  0
 11 17  1  0  0  0
 11 20  1  0  0  0
 11 97  1  0  0  0
 12 98  1  0  0  0
 15 99  1  0  0  0
 17 18  1  0  0  0
 17 21  1  0  0  0
 18 19  1  0  0  0
 18100  1  0  0  0
 18101  1  0  0  0
 19 20  1  0  0  0
 19 22  1  0  0  0
 19102  1  0  0  0
 20103  1  0  0  0
 20104  1  0  0  0
 21 23  2  0  0  0
 21 24  1  0  0  0
 22105  1  0  0  0
 24 25  1  0  0  0
 24 26  1  0  0  0
 24106  1  0  0  0
 25 27  1  0  0  0
 25 28  1  0  0  0
 25 29  1  0  0  0
 26 30  1  0  0  0
 26107  1  0  0  0
 27108  1  0  0  0
 27109  1  0  0  0
 27110  1  0  0  0
 28111  1  0  0  0
 28112  1  0  0  0
 28113  1  0  0  0
 29114  1  0  0  0
 29115  1  0  0  0
 29116  1  0  0  0
 30 31  1  0  0  0
 30 33  2  0  0  0
 31 32  1  0  0  0
 31117  1  0  0  0
 31118  1  0  0  0
 32 34  1  0  0  0
 32119  1  0  0  0
 32120  1  0  0  0
 34 35  1  0  0  0
 34121  1  0  0  0
 34122  1  0  0  0
 35 36  1  0  0  0
 35123  1  0  0  0
 35124  1  0  0  0
 36 37  1  0  0  0
 36125  1  0  0  0
 36126  1  0  0  0
 37 38  1  0  0  0
 37127  1  0  0  0
 37128  1  0  0  0
 38 39  1  0  0  0
 38129  1  0  0  0
 38130  1  0  0  0
 39 40  1  0  0  0
 39131  1  0  0  0
 39132  1  0  0  0
 40 41  1  0  0  0
 40133  1  0  0  0
 40134  1  0  0  0
 41 42  1  0  0  0
 41 43  2  0  0  0
 42 44  1  0  0  0
 42135  1  0  0  0
 44 45  1  0  0  0
 44136  1  0  0  0
 44137  1  0  0  0
 45 46  1  0  0  0
 45138  1  0  0  0
 45139  1  0  0  0
 46 47  1  0  0  0
 46 51  1  0  0  0
 47 48  1  0  0  0
 47140  1  0  0  0
 47141  1  0  0  0
 48 49  1  0  0  0
 48142  1  0  0  0
 48143  1  0  0  0
 49 50  1  0  0  0
 49 52  1  0  0  0
 50 51  1  0  0  0
 50144  1  0  0  0
 50145  1  0  0  0
 51146  1  0  0  0
 51147  1  0  0  0
 52 53  1  0  0  0
 52148  1  0  0  0
 52149  1  0  0  0
 53 54  1  0  0  0
 53 58  2  0  0  0
 54 55  2  0  0  0
 54150  1  0  0  0
 55 56  1  0  0  0
 55 59  1  0  0  0
 56 57  2  0  0  0
 56151  1  0  0  0
 57 58  1  0  0  0
 57152  1  0  0  0
 58153  1  0  0  0
 59 60  2  0  0  0
 59 64  1  0  0  0
 60 61  1  0  0  0
 60154  1  0  0  0
 61 62  2  0  0  0
 61 72  1  0  0  0
 62 63  1  0  0  0
 62 65  1  0  0  0
 63 64  2  0  0  0
 63155  1  0  0  0
 64156  1  0  0  0
 65 66  1  0  0  0
 65 70  1  0  0  0
 66 67  1  0  0  0
 66157  1  0  0  0
 66158  1  0  0  0
 67 68  1  0  0  0
 67159  1  0  0  0
 67160  1  0  0  0
 68 69  1  0  0  0
 68 71  1  0  0  0
 68 90  1  0  0  0
 69 70  1  0  0  0
 69161  1  0  0  0
 69162  1  0  0  0
 70163  1  0  0  0
 70164  1  0  0  0
 71165  1  0  0  0
 71166  1  0  0  0
 71167  1  0  0  0
 72 73  1  0  0  0
 72168  1  0  0  0
 73 74  1  0  0  0
 73 81  2  0  0  0
 74 75  2  0  0  0
 74 79  1  0  0  0
 75 76  1  0  0  0
 75 88  1  0  0  0
 76 77  1  0  0  0
 76 89  1  0  0  0
 77 78  1  0  0  0
 77 82  2  0  0  0
 78 79  2  0  0  0
 78 87  1  0  0  0
 79 80  1  0  0  0
 80 84  1  0  0  0
 80 85  1  0  0  0
 80 86  1  0  0  0
 83169  1  0  0  0
 83170  1  0  0  0
 83171  1  0  0  0
M  CHG  1  68   1
M  END
$$$$
