8BB2_chainB_molecule3_molecule2
                    3D
 Schrodinger Suite 2023-4.
 35 38  0  0  1  0            999 V2000
  -12.1510    1.7610   11.7050 C   0  0  0  0  0  0
  -10.8190    2.1610   11.5810 C   0  0  0  0  0  0
  -10.0090    1.6350   10.5860 C   0  0  0  0  0  0
  -10.4980    0.7010    9.6730 C   0  0  0  0  0  0
   -9.6330    0.1430    8.6020 C   0  0  0  0  0  0
   -8.5530    0.8670    8.0860 C   0  0  0  0  0  0
   -7.7760    0.3720    7.0460 C   0  0  0  0  0  0
   -8.0730   -0.8740    6.4990 C   0  0  0  0  0  0
   -8.3470   -1.4690    4.1690 C   0  0  0  0  0  0
   -7.6340   -2.2070    3.0590 C   0  0  0  0  0  0
   -5.7210   -2.2270    1.5960 C   0  0  0  0  0  0
   -5.5190   -1.4280    3.8540 C   0  0  0  0  0  0
   -6.2010   -0.7100    4.9760 C   0  0  0  0  0  0
   -9.1110   -1.6390    7.0540 C   0  0  0  0  0  0
  -10.4450   -3.5190    6.3340 C   0  0  0  0  0  0
  -10.4560   -5.0150    6.2290 C   0  0  0  0  0  0
   -9.8800   -5.7650    7.2590 C   0  0  0  0  0  0
  -10.5750   -7.7480    6.3300 C   0  0  0  0  0  0
  -11.1790   -7.0980    5.2440 C   0  0  0  0  0  0
  -11.0980   -5.7100    5.1820 C   0  0  0  0  0  0
  -11.5580   -5.0380    3.9160 C   0  0  0  0  0  0
   -9.9060   -1.1210    8.0710 C   0  0  0  0  0  0
  -11.8320    0.2970    9.8100 C   0  0  0  0  0  0
  -12.6440    0.8200   10.8040 C   0  0  0  0  0  0
  -11.9040   -5.8990    2.9550 F   0  0  0  0  0  0
  -12.6350   -4.3530    4.0900 F   0  0  0  0  0  0
  -10.6330   -4.1810    3.3990 F   0  0  0  0  0  0
   -7.4670   -1.3530    5.3360 N   0  0  0  0  0  0
   -6.3950   -1.5240    2.6870 N   0  0  0  0  0  0
   -9.2730   -2.9980    6.7420 N   0  0  0  0  0  0
   -9.9130   -7.1040    7.3240 N   0  0  0  0  0  0
  -10.6580   -9.0470    6.4020 O   0  0  0  0  0  0
  -11.4500   -2.8330    6.1220 O   0  0  0  0  0  0
  -12.7702    2.1796   12.4846 H   0  0  0  0  0  0
   -9.4583   -7.5839    8.0876 H   0  0  0  0  0  0
  1  2  2  0  0  0
  1 24  1  0  0  0
  1 34  1  0  0  0
  2  3  1  0  0  0
  3  4  2  0  0  0
  4  5  1  0  0  0
  4 23  1  0  0  0
  5  6  2  0  0  0
  5 22  1  0  0  0
  6  7  1  0  0  0
  7  8  2  0  0  0
  8 14  1  0  0  0
  8 28  1  0  0  0
  9 10  1  0  0  0
  9 28  1  0  0  0
 10 29  1  0  0  0
 11 29  1  0  0  0
 12 13  1  0  0  0
 12 29  1  0  0  0
 13 28  1  0  0  0
 14 22  2  0  0  0
 14 30  1  0  0  0
 15 16  1  0  0  0
 15 30  1  0  0  0
 15 33  2  0  0  0
 16 17  2  0  0  0
 16 20  1  0  0  0
 17 31  1  0  0  0
 18 19  1  0  0  0
 18 31  1  0  0  0
 18 32  2  0  0  0
 19 20  2  0  0  0
 20 21  1  0  0  0
 21 25  1  0  0  0
 21 26  1  0  0  0
 21 27  1  0  0  0
 23 24  2  0  0  0
 31 35  1  0  0  0
M  END
$$$$
