8BB3_chainB_ligand_molecule
                    3D
 Schrodinger Suite 2023-4.
 33 35  0  0  1  0            999 V2000
  -19.6680    4.7840   34.0620 N   0  0  0  0  0  0
  -17.2690    4.5240   33.5370 C   0  0  0  0  0  0
  -17.2400    7.2100   25.3330 O   0  0  0  0  0  0
  -20.6290    6.2570   32.1990 S   0  0  0  0  0  0
  -15.9910    8.3690   26.8090 N   0  0  0  0  0  0
  -19.0410   12.0170   25.0120 O   0  0  0  0  0  0
  -18.6260    5.0320   33.1850 C   0  0  0  0  0  0
  -17.3710    9.6190   25.2840 C   0  0  2  0  0  0
  -18.7640    9.8270   25.9160 C   0  0  0  0  0  0
  -19.4970   10.6660   24.8800 C   0  0  2  0  0  0
  -19.0160   10.0860   23.5470 C   0  0  0  0  0  0
  -16.6080    9.5290   22.9730 C   0  0  0  0  0  0
  -16.8630    9.7070   21.4700 C   0  0  1  0  0  0
  -15.6800   11.6210   20.4940 C   0  0  0  0  0  0
  -15.5130    9.1900   23.3520 O   0  0  0  0  0  0
  -17.6250    9.7200   23.8410 N   0  0  0  0  0  0
  -20.7540    5.3650   33.6580 C   0  0  0  0  0  0
  -18.9630    5.7890   32.0960 C   0  0  0  0  0  0
  -15.6820   10.3530   20.9090 N   0  0  0  0  0  0
  -16.6910   12.3030   20.4450 O   0  0  0  0  0  0
  -18.1970    6.1310   30.8850 C   0  0  0  0  0  0
  -17.3630    5.1920   30.2890 C   0  0  0  0  0  0
  -17.1450    8.3560   20.7580 C   0  0  0  0  0  0
  -18.2280    7.5500   21.4920 C   0  0  0  0  0  0
  -15.8550    7.5350   20.7200 C   0  0  0  0  0  0
  -17.6140    8.6280   19.3220 C   0  0  0  0  0  0
  -17.4860    7.7320   29.2280 C   0  0  0  0  0  0
  -18.2680    7.4030   30.3250 C   0  0  0  0  0  0
  -16.5860    5.5290   29.1940 C   0  0  0  0  0  0
  -16.6130    6.8080   28.6690 C   0  0  0  0  0  0
  -15.6230    7.2020   27.5990 C   0  0  0  0  0  0
  -16.8370    8.2850   25.7850 C   0  0  0  0  0  0
  -14.7562   12.0859   20.1829 H   0  0  0  0  0  0
  1  7  1  0  0  0
  1 17  2  0  0  0
  2  7  1  0  0  0
  3 32  2  0  0  0
  4 17  1  0  0  0
  4 18  1  0  0  0
  5 31  1  0  0  0
  5 32  1  0  0  0
  6 10  1  0  0  0
  7 18  2  0  0  0
  8  9  1  0  0  0
  8 16  1  0  0  0
  8 32  1  0  0  0
  9 10  1  0  0  0
 10 11  1  0  0  0
 11 16  1  0  0  0
 12 13  1  0  0  0
 12 15  2  0  0  0
 12 16  1  0  0  0
 13 19  1  0  0  0
 13 23  1  0  0  0
 14 19  1  0  0  0
 14 20  2  0  0  0
 14 33  1  0  0  0
 18 21  1  0  0  0
 21 22  2  0  0  0
 21 28  1  0  0  0
 22 29  1  0  0  0
 23 24  1  0  0  0
 23 25  1  0  0  0
 23 26  1  0  0  0
 27 28  2  0  0  0
 27 30  1  0  0  0
 29 30  2  0  0  0
 30 31  1  0  0  0
M  END
$$$$
