protac.smi:1
                    3D
 Schrodinger Suite 2023-4.
133139  0  0  1  0            999 V2000
   -8.4343    8.6322    7.3660 C   0  0  0  0  0  0
   -9.2255    7.7139    8.2752 C   0  0  0  0  0  0
   -9.4229    6.3273    8.1692 C   0  0  0  0  0  0
  -10.3830    5.8064    9.5357 S   0  0  0  0  0  0
  -10.4315    7.4465   10.0716 C   0  0  0  0  0  0
   -9.7921    8.2982    9.3164 N   0  0  0  0  0  0
   -8.9670    5.3435    7.1404 C   0  0  0  0  0  0
   -8.5304    4.0664    7.5097 C   0  0  0  0  0  0
   -8.1020    3.1636    6.5409 C   0  0  0  0  0  0
   -8.0987    3.5332    5.1945 C   0  0  0  0  0  0
   -8.5533    4.7988    4.8187 C   0  0  0  0  0  0
   -8.9783    5.7020    5.7889 C   0  0  0  0  0  0
   -7.6674    2.5280    4.1333 C   0  0  0  0  0  0
   -6.2179    2.4284    3.9658 N   0  0  0  0  0  0
   -5.4395    3.3474    3.3670 C   0  0  0  0  0  0
   -5.8743    4.4001    2.8945 O   0  0  0  0  0  0
   -3.9203    3.0631    3.3683 C   0  0  2  0  0  0
   -3.1283    4.0590    4.2452 C   0  0  0  0  0  0
   -1.8821    4.3943    3.4360 C   0  0  2  0  0  0
   -2.4045    4.3437    1.9946 C   0  0  0  0  0  0
   -3.3290    3.2007    2.0196 N   0  0  0  0  0  0
   -3.4501    2.2422    1.0613 C   0  0  0  0  0  0
   -4.0966    1.2070    1.2439 O   0  0  0  0  0  0
   -2.8484    2.4771   -0.3595 C   0  0  2  0  0  0
   -3.9146    2.8500   -1.4611 C   0  0  0  0  0  0
   -3.1982    3.1758   -2.7986 C   0  0  0  0  0  0
   -4.7157    4.1149   -1.0516 C   0  0  0  0  0  0
   -4.9203    1.6998   -1.7370 C   0  0  0  0  0  0
   -2.0207    1.3279   -0.7562 N   0  0  0  0  0  0
   -0.8559    0.9715   -0.1868 C   0  0  0  0  0  0
   -0.3490    1.5860    0.7530 O   0  0  0  0  0  0
   -0.1548   -0.2638   -0.7735 C   0  0  0  0  0  0
    1.3750   -0.1052   -0.9255 C   0  0  0  0  0  0
    1.8018    0.9657   -1.9558 C   0  0  0  0  0  0
    3.3198    1.2172   -2.0212 C   0  0  0  0  0  0
    3.8454    1.7947   -0.7824 N   0  0  0  0  0  0
    4.5747    1.1498    0.1489 C   0  0  0  0  0  0
    4.9409   -0.0214    0.0317 O   0  0  0  0  0  0
    4.9484    1.9566    1.3697 C   0  0  0  0  0  0
    6.1346    1.6720    2.0548 C   0  0  0  0  0  0
    6.4910    2.4062    3.1827 C   0  0  0  0  0  0
    5.6680    3.4340    3.6583 C   0  0  0  0  0  0
    4.4749    3.7065    2.9785 C   0  0  0  0  0  0
    4.1173    2.9796    1.8468 C   0  0  0  0  0  0
    6.0553    4.2252    4.8623 C   0  0  0  0  0  0
    6.6519    3.6121    5.9667 C   0  0  0  0  0  0
    7.0217    4.3552    7.0840 C   0  0  0  0  0  0
    6.7978    5.7369    7.1522 C   0  0  0  0  0  0
    6.2034    6.3715    6.0347 C   0  0  0  0  0  0
    5.8407    5.6064    4.9130 C   0  0  0  0  0  0
    6.0015    7.7667    6.0388 N   0  0  0  0  0  0
    4.9356    8.4481    5.5582 C   0  0  0  0  0  0
    3.9738    7.9207    4.9977 O   0  0  0  0  0  0
    4.9989    9.8820    5.7813 C   0  0  0  0  0  0
    6.1223   10.5781    5.4744 C   0  0  0  0  0  0
    6.2561   11.9321    5.5903 N   0  0  0  0  0  0
    5.2422   12.7385    6.0026 C   0  0  0  0  0  0
    5.3388   13.9631    6.0016 O   0  0  0  0  0  0
    4.0384   12.0201    6.4148 C   0  0  0  0  0  0
    3.8612   10.6684    6.3230 C   0  0  0  0  0  0
    2.5561   10.0228    6.8231 C   0  0  0  0  0  0
    1.8224   10.8804    7.5362 F   0  0  0  0  0  0
    1.8259    9.6175    5.7844 F   0  0  0  0  0  0
    2.8248    8.9782    7.6082 F   0  0  0  0  0  0
    7.1959    6.3960    8.3177 N   0  0  0  0  0  0
    6.4701    7.5254    8.9274 C   0  0  0  0  0  0
    6.5833    7.5993   10.4651 C   0  0  0  0  0  0
    8.0710    7.6411   10.8599 N   0  3  0  0  0  0
    8.7500    6.3686   10.3217 C   0  0  0  0  0  0
    8.5915    6.3237    8.7872 C   0  0  0  0  0  0
    8.2251    7.7325   12.3906 C   0  0  0  0  0  0
   -0.9016    3.3865    3.6232 O   0  0  0  0  0  0
   -7.7819    8.0827    6.6877 H   0  0  0  0  0  0
   -7.7882    9.3093    7.9267 H   0  0  0  0  0  0
   -9.0891    9.2491    6.7502 H   0  0  0  0  0  0
  -10.9567    7.7280   10.9720 H   0  0  0  0  0  0
   -8.5142    3.7690    8.5480 H   0  0  0  0  0  0
   -7.7682    2.1800    6.8382 H   0  0  0  0  0  0
   -8.5723    5.0863    3.7773 H   0  0  0  0  0  0
   -9.3276    6.6772    5.4820 H   0  0  0  0  0  0
   -8.0363    1.5420    4.4186 H   0  0  0  0  0  0
   -8.1460    2.7542    3.1780 H   0  0  0  0  0  0
   -5.7766    1.6191    4.3774 H   0  0  0  0  0  0
   -3.8102    2.0378    3.7274 H   0  0  0  0  0  0
   -3.6749    4.9946    4.3853 H   0  0  0  0  0  0
   -2.9132    3.6763    5.2440 H   0  0  0  0  0  0
   -1.4277    5.3550    3.6804 H   0  0  0  0  0  0
   -2.9611    5.2634    1.8089 H   0  0  0  0  0  0
   -1.5577    4.2831    1.3130 H   0  0  0  0  0  0
   -2.1563    3.3148   -0.3367 H   0  0  0  0  0  0
   -3.9092    3.4613   -3.5754 H   0  0  0  0  0  0
   -2.6402    2.3221   -3.1851 H   0  0  0  0  0  0
   -2.4993    4.0063   -2.6878 H   0  0  0  0  0  0
   -4.0591    4.9715   -0.8929 H   0  0  0  0  0  0
   -5.2918    3.9630   -0.1380 H   0  0  0  0  0  0
   -5.4323    4.4001   -1.8232 H   0  0  0  0  0  0
   -5.6049    1.9576   -2.5463 H   0  0  0  0  0  0
   -5.5447    1.4802   -0.8713 H   0  0  0  0  0  0
   -4.4161    0.7786   -2.0306 H   0  0  0  0  0  0
   -2.3832    0.7762   -1.5198 H   0  0  0  0  0  0
   -0.3595   -1.0962   -0.0993 H   0  0  0  0  0  0
   -0.5945   -0.5407   -1.7335 H   0  0  0  0  0  0
    1.8108    0.1109    0.0510 H   0  0  0  0  0  0
    1.8003   -1.0649   -1.2219 H   0  0  0  0  0  0
    1.4528    0.6602   -2.9430 H   0  0  0  0  0  0
    1.3019    1.9127   -1.7484 H   0  0  0  0  0  0
    3.8279    0.2774   -2.2481 H   0  0  0  0  0  0
    3.5510    1.8917   -2.8461 H   0  0  0  0  0  0
    3.6519    2.7748   -0.6368 H   0  0  0  0  0  0
    6.7952    0.8869    1.7141 H   0  0  0  0  0  0
    7.4201    2.1735    3.6823 H   0  0  0  0  0  0
    3.8112    4.4841    3.3283 H   0  0  0  0  0  0
    3.1838    3.2150    1.3552 H   0  0  0  0  0  0
    6.8297    2.5465    5.9683 H   0  0  0  0  0  0
    7.4713    3.8338    7.9172 H   0  0  0  0  0  0
    5.4128    6.0915    4.0476 H   0  0  0  0  0  0
    6.6064    8.2797    6.6627 H   0  0  0  0  0  0
    7.0169   10.1445    5.0478 H   0  0  0  0  0  0
    7.0975   12.3990    5.2846 H   0  0  0  0  0  0
    3.2463   12.6354    6.8158 H   0  0  0  0  0  0
    6.8515    8.4553    8.5025 H   0  0  0  0  0  0
    5.4157    7.4698    8.6518 H   0  0  0  0  0  0
    6.1365    8.5151   10.8549 H   0  0  0  0  0  0
    6.1290    6.7383   10.9596 H   0  0  0  0  0  0
    9.7994    6.4339   10.6134 H   0  0  0  0  0  0
    8.2910    5.5093   10.8152 H   0  0  0  0  0  0
    9.1355    7.1620    8.3486 H   0  0  0  0  0  0
    9.0819    5.4301    8.4000 H   0  0  0  0  0  0
    7.7549    6.8538   12.8354 H   0  0  0  0  0  0
    7.7362    8.6546   12.7081 H   0  0  0  0  0  0
    9.2945    7.7670   12.6034 H   0  0  0  0  0  0
   -1.3454    2.5374    3.6859 H   0  0  0  0  0  0
    8.5006    8.4473   10.4280 H   0  0  0  0  0  0
  1  2  1  0  0  0
  1 73  1  0  0  0
  1 74  1  0  0  0
  1 75  1  0  0  0
  2  3  2  0  0  0
  2  6  1  0  0  0
  3  4  1  0  0  0
  3  7  1  0  0  0
  4  5  1  0  0  0
  5  6  2  0  0  0
  5 76  1  0  0  0
  7  8  2  0  0  0
  7 12  1  0  0  0
  8  9  1  0  0  0
  8 77  1  0  0  0
  9 10  2  0  0  0
  9 78  1  0  0  0
 10 11  1  0  0  0
 10 13  1  0  0  0
 11 12  2  0  0  0
 11 79  1  0  0  0
 12 80  1  0  0  0
 13 14  1  0  0  0
 13 81  1  0  0  0
 13 82  1  0  0  0
 14 15  1  0  0  0
 14 83  1  0  0  0
 15 16  2  0  0  0
 15 17  1  0  0  0
 17 18  1  0  0  0
 17 21  1  0  0  0
 17 84  1  0  0  0
 18 19  1  0  0  0
 18 85  1  0  0  0
 18 86  1  0  0  0
 19 20  1  0  0  0
 19 72  1  0  0  0
 19 87  1  0  0  0
 20 21  1  0  0  0
 20 88  1  0  0  0
 20 89  1  0  0  0
 21 22  1  0  0  0
 22 23  2  0  0  0
 22 24  1  0  0  0
 24 25  1  0  0  0
 24 29  1  0  0  0
 24 90  1  0  0  0
 25 26  1  0  0  0
 25 27  1  0  0  0
 25 28  1  0  0  0
 26 91  1  0  0  0
 26 92  1  0  0  0
 26 93  1  0  0  0
 27 94  1  0  0  0
 27 95  1  0  0  0
 27 96  1  0  0  0
 28 97  1  0  0  0
 28 98  1  0  0  0
 28 99  1  0  0  0
 29 30  1  0  0  0
 29100  1  0  0  0
 30 31  2  0  0  0
 30 32  1  0  0  0
 32 33  1  0  0  0
 32101  1  0  0  0
 32102  1  0  0  0
 33 34  1  0  0  0
 33103  1  0  0  0
 33104  1  0  0  0
 34 35  1  0  0  0
 34105  1  0  0  0
 34106  1  0  0  0
 35 36  1  0  0  0
 35107  1  0  0  0
 35108  1  0  0  0
 36 37  1  0  0  0
 36109  1  0  0  0
 37 38  2  0  0  0
 37 39  1  0  0  0
 39 40  2  0  0  0
 39 44  1  0  0  0
 40 41  1  0  0  0
 40110  1  0  0  0
 41 42  2  0  0  0
 41111  1  0  0  0
 42 43  1  0  0  0
 42 45  1  0  0  0
 43 44  2  0  0  0
 43112  1  0  0  0
 44113  1  0  0  0
 45 46  2  0  0  0
 45 50  1  0  0  0
 46 47  1  0  0  0
 46114  1  0  0  0
 47 48  2  0  0  0
 47115  1  0  0  0
 48 49  1  0  0  0
 48 65  1  0  0  0
 49 50  2  0  0  0
 49 51  1  0  0  0
 50116  1  0  0  0
 51 52  1  0  0  0
 51117  1  0  0  0
 52 53  2  0  0  0
 52 54  1  0  0  0
 54 55  2  0  0  0
 54 60  1  0  0  0
 55 56  1  0  0  0
 55118  1  0  0  0
 56 57  1  0  0  0
 56119  1  0  0  0
 57 58  2  0  0  0
 57 59  1  0  0  0
 59 60  2  0  0  0
 59120  1  0  0  0
 60 61  1  0  0  0
 61 62  1  0  0  0
 61 63  1  0  0  0
 61 64  1  0  0  0
 65 66  1  0  0  0
 65 70  1  0  0  0
 66 67  1  0  0  0
 66121  1  0  0  0
 66122  1  0  0  0
 67 68  1  0  0  0
 67123  1  0  0  0
 67124  1  0  0  0
 68 69  1  0  0  0
 68 71  1  0  0  0
 68133  1  0  0  0
 69 70  1  0  0  0
 69125  1  0  0  0
 69126  1  0  0  0
 70127  1  0  0  0
 70128  1  0  0  0
 71129  1  0  0  0
 71130  1  0  0  0
 71131  1  0  0  0
 72132  1  0  0  0
M  CHG  1  68   1
M  END
$$$$
