protac.smi:1
                    3D
 Schrodinger Suite 2023-4.
132138  0  0  1  0            999 V2000
    6.2943   -7.6153    5.2352 C   0  0  0  0  0  0
    6.0520   -6.1255    5.1840 C   0  0  0  0  0  0
    5.7402   -5.2536    6.2247 C   0  0  0  0  0  0
    5.6234   -4.0084    5.6450 C   0  0  0  0  0  0
    5.8614   -4.1463    4.3143 O   0  0  0  0  0  0
    6.1282   -5.4877    4.0373 N   0  0  0  0  0  0
    5.3121   -2.6189    6.1891 C   0  0  1  0  0  0
    6.5946   -1.7377    6.3589 C   0  0  0  0  0  0
    6.3212   -0.4285    7.1314 C   0  0  0  0  0  0
    7.3808   -1.4451    5.0619 C   0  0  0  0  0  0
    4.1685   -1.9231    5.3971 C   0  0  0  0  0  0
    4.3529   -1.6675    4.2054 O   0  0  0  0  0  0
    3.0306   -1.5378    6.0359 N   0  0  0  0  0  0
    2.5203   -2.1304    7.2809 C   0  0  0  0  0  0
    1.0507   -2.4302    6.9525 C   0  0  1  0  0  0
    0.6540   -1.2060    6.1383 C   0  0  0  0  0  0
    1.9282   -0.8216    5.3535 C   0  0  1  0  0  0
    2.1387    0.7078    5.2472 C   0  0  0  0  0  0
    3.1774    1.2392    5.6459 O   0  0  0  0  0  0
    1.1505    1.3946    4.6438 N   0  0  0  0  0  0
    1.1378    2.8409    4.3593 C   0  0  1  0  0  0
   -0.1284    3.2852    3.5769 C   0  0  0  0  0  0
   -0.4632    2.4252    2.3505 C   0  0  0  0  0  0
   -1.3601    1.5837    2.4184 O   0  0  0  0  0  0
    0.2803    2.6373    1.2512 N   0  0  0  0  0  0
    0.1639    1.8851    0.0022 C   0  0  0  0  0  0
    0.6865    0.4388    0.0959 C   0  0  0  0  0  0
    2.0627    0.4451    0.4564 O   0  0  0  0  0  0
    2.6146   -0.8569    0.5985 C   0  0  0  0  0  0
    4.1175   -0.7481    0.8798 C   0  0  0  0  0  0
    4.6798   -2.0518    0.8260 O   0  0  0  0  0  0
    6.0809   -2.0880    1.0566 C   0  0  0  0  0  0
    6.5892   -3.5119    0.7715 C   0  0  0  0  0  0
    8.0096   -3.5938    0.7168 O   0  0  0  0  0  0
    8.6831   -3.4380    1.9611 C   0  0  0  0  0  0
   10.1927   -3.6831    1.7854 C   0  0  0  0  0  0
   10.5116   -5.0208    1.2821 N   0  0  0  0  0  0
   10.5970   -5.3595   -0.0175 C   0  0  0  0  0  0
   10.4432   -4.5539   -0.9360 O   0  0  0  0  0  0
   10.9044   -6.8345   -0.3287 C   0  0  0  0  0  0
    9.7532   -7.5666   -1.0736 C   0  0  1  0  0  0
    9.5911   -7.1781   -2.5495 C   0  0  0  0  0  0
   10.4185   -6.5162   -3.3244 N   0  0  0  0  0  0
    9.8698   -6.5004   -4.6015 N   0  0  0  0  0  0
    8.7509   -7.1799   -4.5531 C   0  0  0  0  0  0
    8.5074   -7.6327   -3.2711 N   0  0  0  0  0  0
    7.4855   -8.4158   -2.7581 C   0  0  0  0  0  0
    7.6797   -9.4525   -1.8168 C   0  0  0  0  0  0
    6.4522  -10.0662   -1.4316 C   0  0  0  0  0  0
    5.3434   -9.5047   -2.0805 C   0  0  0  0  0  0
    5.8143   -8.2281   -3.1511 S   0  0  0  0  0  0
    3.8765   -9.8578   -1.9538 C   0  0  0  0  0  0
    6.3011  -11.1277   -0.3505 C   0  0  0  0  0  0
    9.0370   -9.8295   -1.3085 C   0  0  0  0  0  0
    9.9723   -9.0079   -0.9730 N   0  0  0  0  0  0
    9.3021  -11.2833   -1.2272 C   0  0  0  0  0  0
    8.9008  -12.1398   -2.2636 C   0  0  0  0  0  0
    9.1539  -13.5063   -2.1838 C   0  0  0  0  0  0
    9.8153  -14.0242   -1.0728 C   0  0  0  0  0  0
   10.2295  -13.1841   -0.0417 C   0  0  0  0  0  0
    9.9774  -11.8171   -0.1193 C   0  0  0  0  0  0
   10.1264  -15.7190   -0.9741 Cl  0  0  0  0  0  0
    7.8679   -7.4372   -5.7565 C   0  0  0  0  0  0
    1.3322    3.7350    5.5920 C   0  0  0  0  0  0
    2.1874    4.8391    5.5165 C   0  0  0  0  0  0
    2.3836    5.6496    6.6314 C   0  0  0  0  0  0
    1.7257    5.3561    7.8242 C   0  0  0  0  0  0
    0.8729    4.2575    7.9101 C   0  0  0  0  0  0
    0.6768    3.4470    6.7955 C   0  0  0  0  0  0
    1.9692    6.3610    9.2064 Cl  0  0  0  0  0  0
    0.9574   -3.5871    6.1366 O   0  0  0  0  0  0
    6.2083   -8.0062    6.2495 H   0  0  0  0  0  0
    7.2913   -7.8751    4.8771 H   0  0  0  0  0  0
    5.5777   -8.1616    4.6208 H   0  0  0  0  0  0
    5.6168   -5.5003    7.2686 H   0  0  0  0  0  0
    4.9846   -2.7811    7.2129 H   0  0  0  0  0  0
    7.2737   -2.3134    6.9912 H   0  0  0  0  0  0
    5.6957    0.2560    6.5573 H   0  0  0  0  0  0
    7.2495    0.0952    7.3622 H   0  0  0  0  0  0
    5.8155   -0.6232    8.0778 H   0  0  0  0  0  0
    6.8108   -0.8303    4.3657 H   0  0  0  0  0  0
    7.6637   -2.3626    4.5492 H   0  0  0  0  0  0
    8.3057   -0.9099    5.2792 H   0  0  0  0  0  0
    3.0150   -3.0320    7.6405 H   0  0  0  0  0  0
    2.5261   -1.3766    8.0696 H   0  0  0  0  0  0
    0.4397   -2.5897    7.8418 H   0  0  0  0  0  0
   -0.2178   -1.3581    5.4999 H   0  0  0  0  0  0
    0.3807   -0.4243    6.8514 H   0  0  0  0  0  0
    1.8560   -1.1352    4.3101 H   0  0  0  0  0  0
    0.4001    0.8631    4.2262 H   0  0  0  0  0  0
    1.9911    3.0095    3.6969 H   0  0  0  0  0  0
   -0.9908    3.2901    4.2462 H   0  0  0  0  0  0
   -0.0211    4.3254    3.2634 H   0  0  0  0  0  0
    0.9955    3.3492    1.2797 H   0  0  0  0  0  0
   -0.8700    1.8932   -0.3477 H   0  0  0  0  0  0
    0.7430    2.4240   -0.7484 H   0  0  0  0  0  0
    0.1098   -0.1210    0.8351 H   0  0  0  0  0  0
    0.5523   -0.0592   -0.8660 H   0  0  0  0  0  0
    2.1226   -1.3864    1.4169 H   0  0  0  0  0  0
    2.4559   -1.4369   -0.3129 H   0  0  0  0  0  0
    4.5873   -0.1037    0.1344 H   0  0  0  0  0  0
    4.2837   -0.2959    1.8589 H   0  0  0  0  0  0
    6.5977   -1.3819    0.4039 H   0  0  0  0  0  0
    6.2906   -1.8027    2.0883 H   0  0  0  0  0  0
    6.1908   -4.2224    1.4967 H   0  0  0  0  0  0
    6.2140   -3.8361   -0.2000 H   0  0  0  0  0  0
    8.5285   -2.4296    2.3453 H   0  0  0  0  0  0
    8.2838   -4.1396    2.6954 H   0  0  0  0  0  0
   10.6174   -2.9182    1.1317 H   0  0  0  0  0  0
   10.6893   -3.5641    2.7486 H   0  0  0  0  0  0
   10.6759   -5.7333    1.9779 H   0  0  0  0  0  0
   11.8304   -6.8871   -0.9032 H   0  0  0  0  0  0
   11.1178   -7.3506    0.6104 H   0  0  0  0  0  0
    8.8325   -7.3150   -0.5369 H   0  0  0  0  0  0
    3.7199  -10.8418   -1.5126 H   0  0  0  0  0  0
    3.3761   -9.8713   -2.9226 H   0  0  0  0  0  0
    3.3466   -9.1383   -1.3294 H   0  0  0  0  0  0
    5.3532  -11.0423    0.1807 H   0  0  0  0  0  0
    7.0603  -11.0405    0.4268 H   0  0  0  0  0  0
    6.3566  -12.1375   -0.7574 H   0  0  0  0  0  0
    8.3917  -11.7561   -3.1365 H   0  0  0  0  0  0
    8.8378  -14.1593   -2.9841 H   0  0  0  0  0  0
   10.7451  -13.5883    0.8171 H   0  0  0  0  0  0
   10.3043  -11.1803    0.6908 H   0  0  0  0  0  0
    8.3229   -7.0864   -6.6835 H   0  0  0  0  0  0
    6.9077   -6.9293   -5.6677 H   0  0  0  0  0  0
    7.6645   -8.5002   -5.8864 H   0  0  0  0  0  0
    2.7029    5.0709    4.5958 H   0  0  0  0  0  0
    3.0455    6.5008    6.5684 H   0  0  0  0  0  0
    0.3651    4.0315    8.8363 H   0  0  0  0  0  0
    0.0149    2.5962    6.8681 H   0  0  0  0  0  0
    1.5311   -4.2659    6.4990 H   0  0  0  0  0  0
  1  2  1  0  0  0
  1 72  1  0  0  0
  1 73  1  0  0  0
  1 74  1  0  0  0
  2  3  1  0  0  0
  2  6  2  0  0  0
  3  4  2  0  0  0
  3 75  1  0  0  0
  4  5  1  0  0  0
  4  7  1  0  0  0
  5  6  1  0  0  0
  7  8  1  0  0  0
  7 11  1  0  0  0
  7 76  1  0  0  0
  8  9  1  0  0  0
  8 10  1  0  0  0
  8 77  1  0  0  0
  9 78  1  0  0  0
  9 79  1  0  0  0
  9 80  1  0  0  0
 10 81  1  0  0  0
 10 82  1  0  0  0
 10 83  1  0  0  0
 11 12  2  0  0  0
 11 13  1  0  0  0
 13 14  1  0  0  0
 13 17  1  0  0  0
 14 15  1  0  0  0
 14 84  1  0  0  0
 14 85  1  0  0  0
 15 16  1  0  0  0
 15 71  1  0  0  0
 15 86  1  0  0  0
 16 17  1  0  0  0
 16 87  1  0  0  0
 16 88  1  0  0  0
 17 18  1  0  0  0
 17 89  1  0  0  0
 18 19  2  0  0  0
 18 20  1  0  0  0
 20 21  1  0  0  0
 20 90  1  0  0  0
 21 22  1  0  0  0
 21 64  1  0  0  0
 21 91  1  0  0  0
 22 23  1  0  0  0
 22 92  1  0  0  0
 22 93  1  0  0  0
 23 24  2  0  0  0
 23 25  1  0  0  0
 25 26  1  0  0  0
 25 94  1  0  0  0
 26 27  1  0  0  0
 26 95  1  0  0  0
 26 96  1  0  0  0
 27 28  1  0  0  0
 27 97  1  0  0  0
 27 98  1  0  0  0
 28 29  1  0  0  0
 29 30  1  0  0  0
 29 99  1  0  0  0
 29100  1  0  0  0
 30 31  1  0  0  0
 30101  1  0  0  0
 30102  1  0  0  0
 31 32  1  0  0  0
 32 33  1  0  0  0
 32103  1  0  0  0
 32104  1  0  0  0
 33 34  1  0  0  0
 33105  1  0  0  0
 33106  1  0  0  0
 34 35  1  0  0  0
 35 36  1  0  0  0
 35107  1  0  0  0
 35108  1  0  0  0
 36 37  1  0  0  0
 36109  1  0  0  0
 36110  1  0  0  0
 37 38  1  0  0  0
 37111  1  0  0  0
 38 39  2  0  0  0
 38 40  1  0  0  0
 40 41  1  0  0  0
 40112  1  0  0  0
 40113  1  0  0  0
 41 42  1  0  0  0
 41 55  1  0  0  0
 41114  1  0  0  0
 42 43  2  0  0  0
 42 46  1  0  0  0
 43 44  1  0  0  0
 44 45  2  0  0  0
 45 46  1  0  0  0
 45 63  1  0  0  0
 46 47  1  0  0  0
 47 48  2  0  0  0
 47 51  1  0  0  0
 48 49  1  0  0  0
 48 54  1  0  0  0
 49 50  2  0  0  0
 49 53  1  0  0  0
 50 51  1  0  0  0
 50 52  1  0  0  0
 52115  1  0  0  0
 52116  1  0  0  0
 52117  1  0  0  0
 53118  1  0  0  0
 53119  1  0  0  0
 53120  1  0  0  0
 54 55  2  0  0  0
 54 56  1  0  0  0
 56 57  2  0  0  0
 56 61  1  0  0  0
 57 58  1  0  0  0
 57121  1  0  0  0
 58 59  2  0  0  0
 58122  1  0  0  0
 59 60  1  0  0  0
 59 62  1  0  0  0
 60 61  2  0  0  0
 60123  1  0  0  0
 61124  1  0  0  0
 63125  1  0  0  0
 63126  1  0  0  0
 63127  1  0  0  0
 64 65  2  0  0  0
 64 69  1  0  0  0
 65 66  1  0  0  0
 65128  1  0  0  0
 66 67  2  0  0  0
 66129  1  0  0  0
 67 68  1  0  0  0
 67 70  1  0  0  0
 68 69  2  0  0  0
 68130  1  0  0  0
 69131  1  0  0  0
 71132  1  0  0  0
M  END
$$$$
