8BB4_chainP_molecule1_molecule2
                    3D
 Schrodinger Suite 2023-4.
 37 40  0  0  1  0            999 V2000
    8.0430   -8.1690   -5.7030 C   0  0  0  0  0  0
    7.5040   -8.8820   -6.7800 C   0  0  0  0  0  0
    8.0710  -10.0800   -7.1920 C   0  0  0  0  0  0
    9.1860  -10.6170   -6.5350 C   0  0  0  0  0  0
    9.7020   -9.9020   -5.4510 C   0  0  0  0  0  0
    9.1460   -8.7040   -5.0440 C   0  0  0  0  0  0
    9.8430  -11.8790   -6.9780 C   0  0  0  0  0  0
   11.1140  -12.1920   -6.4930 C   0  0  0  0  0  0
   11.7710  -13.3400   -6.9080 C   0  0  0  0  0  0
   11.1180  -14.2530   -7.7610 C   0  0  0  0  0  0
   11.6590  -15.5650   -7.9320 N   0  0  0  0  0  0
   12.5150  -16.1230   -6.8780 C   0  0  0  0  0  0
   12.6940  -17.6110   -7.0460 C   0  0  0  0  0  0
   13.2370  -17.9220   -8.3620 N   0  0  0  0  0  0
   13.4600  -19.3540   -8.4930 C   0  0  0  0  0  0
   12.3090  -17.4440   -9.3850 C   0  0  0  0  0  0
   12.1040  -15.9400   -9.2740 C   0  0  0  0  0  0
    9.8620  -13.9320   -8.2710 C   0  0  0  0  0  0
    9.2380  -12.7580   -7.8810 C   0  0  0  0  0  0
   13.0310  -13.6310   -6.3390 N   0  0  0  0  0  0
   13.5160  -13.4340   -5.0950 C   0  0  0  0  0  0
   12.7850  -13.2410   -4.1330 O   0  0  0  0  0  0
   15.0110  -13.4090   -4.9310 C   0  0  0  0  0  0
   15.6540  -14.0730   -3.8710 C   0  0  0  0  0  0
   14.9920  -15.1350   -3.0560 C   0  0  0  0  0  0
   14.0390  -14.6330   -2.2620 F   0  0  0  0  0  0
   15.8780  -15.7740   -2.2780 F   0  0  0  0  0  0
   14.3860  -16.0510   -3.8190 F   0  0  0  0  0  0
   16.9450  -13.7260   -3.4940 C   0  0  0  0  0  0
   17.5730  -12.6890   -4.1870 C   0  0  0  0  0  0
   18.8300  -12.3990   -3.8540 O   0  0  0  0  0  0
   16.9790  -12.0010   -5.2020 N   0  0  0  0  0  0
   15.7320  -12.3770   -5.5480 C   0  0  0  0  0  0
    7.6031   -7.2293   -5.4032 H   0  0  0  0  0  0
   17.4321  -14.2534   -2.6872 H   0  0  0  0  0  0
   17.4729  -11.2472   -5.6580 H   0  0  0  0  0  0
   15.2901  -11.8212   -6.3617 H   0  0  0  0  0  0
  1  2  1  0  0  0
  1  6  2  0  0  0
  1 34  1  0  0  0
  2  3  2  0  0  0
  3  4  1  0  0  0
  4  5  2  0  0  0
  4  7  1  0  0  0
  5  6  1  0  0  0
  7  8  2  0  0  0
  7 19  1  0  0  0
  8  9  1  0  0  0
  9 10  2  0  0  0
  9 20  1  0  0  0
 10 11  1  0  0  0
 10 18  1  0  0  0
 11 12  1  0  0  0
 11 17  1  0  0  0
 12 13  1  0  0  0
 13 14  1  0  0  0
 14 15  1  0  0  0
 14 16  1  0  0  0
 16 17  1  0  0  0
 18 19  2  0  0  0
 20 21  1  0  0  0
 21 22  2  0  0  0
 21 23  1  0  0  0
 23 24  1  0  0  0
 23 33  2  0  0  0
 24 25  1  0  0  0
 24 29  2  0  0  0
 25 26  1  0  0  0
 25 27  1  0  0  0
 25 28  1  0  0  0
 29 30  1  0  0  0
 29 35  1  0  0  0
 30 31  2  0  0  0
 30 32  1  0  0  0
 32 33  1  0  0  0
 32 36  1  0  0  0
 33 37  1  0  0  0
M  END
$$$$
