protac.smi:1
                    3D
 Schrodinger Suite 2023-4.
128135  0  0  1  0            999 V2000
  -11.8953    1.7790   -4.8923 C   0  0  0  0  0  0
  -11.5692    3.2539   -5.0838 C   0  0  0  0  0  0
  -12.5037    4.1570   -5.6089 C   0  0  0  0  0  0
  -11.9063    5.7800   -5.5660 S   0  0  0  0  0  0
  -10.4115    5.2928   -4.8487 C   0  0  0  0  0  0
  -10.3689    3.8946   -4.6556 C   0  0  0  0  0  0
   -9.1835    3.2013   -4.0652 C   0  0  0  0  0  0
   -8.4878    3.6082   -3.0630 N   0  0  0  0  0  0
   -8.8024    4.8659   -2.3849 C   0  0  2  0  0  0
   -8.6386    6.0619   -3.3327 C   0  0  0  0  0  0
   -9.4036    6.1683   -4.4764 N   0  0  0  0  0  0
   -8.9018    7.2924   -5.1045 C   0  0  0  0  0  0
   -7.9551    7.8434   -4.3874 N   0  0  0  0  0  0
   -7.7922    7.0619   -3.2506 N   0  0  0  0  0  0
   -9.3611    7.8315   -6.4436 C   0  0  0  0  0  0
   -7.9936    4.9666   -1.0542 C   0  0  0  0  0  0
   -6.4553    4.8511   -1.1272 C   0  0  0  0  0  0
   -5.8599    4.8948   -2.2051 O   0  0  0  0  0  0
   -5.8267    4.6984    0.0516 N   0  0  0  0  0  0
   -4.3816    4.5525    0.2214 C   0  0  0  0  0  0
   -3.8389    3.1773   -0.2160 C   0  0  0  0  0  0
   -2.3341    3.0053    0.0584 C   0  0  0  0  0  0
   -1.7960    1.6452   -0.4207 C   0  0  0  0  0  0
   -0.3030    1.4378   -0.1095 C   0  0  0  0  0  0
    0.2240    0.0840   -0.6140 C   0  0  0  0  0  0
    1.9409   -0.2945   -0.1396 S   0  0  0  0  0  0
    1.8209   -1.3369    1.3754 C   0  0  0  0  0  0
    0.8834   -0.7050    2.4392 C   0  0  0  0  0  0
    1.2240   -2.7155    0.9814 C   0  0  0  0  0  0
    3.2907   -1.5570    1.9175 C   0  0  1  0  0  0
    4.0613   -0.2505    2.2945 C   0  0  0  0  0  0
    3.6289    0.4162    3.2383 O   0  0  0  0  0  0
    5.1344    0.1490    1.5591 N   0  0  0  0  0  0
    5.8692   -0.6635    0.5786 C   0  0  0  0  0  0
    7.3372   -0.3564    0.9041 C   0  0  1  0  0  0
    7.2885    1.1351    1.2060 C   0  0  0  0  0  0
    5.9191    1.3598    1.8857 C   0  0  1  0  0  0
    5.2345    2.6618    1.4147 C   0  0  0  0  0  0
    4.8417    2.7751    0.2513 O   0  0  0  0  0  0
    5.1932    3.6652    2.3094 N   0  0  0  0  0  0
    4.7077    5.0181    2.0401 C   0  0  0  0  0  0
    5.6456    5.8380    1.1616 C   0  0  0  0  0  0
    5.3145    6.0953   -0.1700 C   0  0  0  0  0  0
    6.1678    6.8556   -0.9645 C   0  0  0  0  0  0
    7.3532    7.3758   -0.4322 C   0  0  0  0  0  0
    7.6711    7.1276    0.9067 C   0  0  0  0  0  0
    6.8192    6.3671    1.7022 C   0  0  0  0  0  0
    8.2847    8.1883   -1.2739 C   0  0  0  0  0  0
    9.0618    9.3194   -0.9720 C   0  0  0  0  0  0
    9.8125    9.7812   -1.9564 N   0  0  0  0  0  0
    9.6717    9.0860   -3.0524 C   0  0  0  0  0  0
    8.5670    7.7642   -2.9478 S   0  0  0  0  0  0
    9.1488   10.0947    0.3274 C   0  0  0  0  0  0
    7.7381   -1.0561    2.0719 O   0  0  0  0  0  0
    3.3228   -2.4692    3.0711 N   0  0  0  0  0  0
    4.3950   -3.1583    3.5007 C   0  0  0  0  0  0
    5.4814   -3.1307    2.9183 O   0  0  0  0  0  0
    4.2029   -4.0033    4.7765 C   0  0  0  0  0  0
    5.3756   -4.0952    5.7315 C   0  0  0  0  0  0
    4.9904   -5.2925    4.8899 C   0  0  0  0  0  0
    2.9802   -3.9844    5.3138 F   0  0  0  0  0  0
   -8.7834    1.9436   -4.7349 C   0  0  0  0  0  0
   -8.7437    1.8640   -6.1350 C   0  0  0  0  0  0
   -8.3589    0.6816   -6.7610 C   0  0  0  0  0  0
   -8.0053   -0.4251   -5.9926 C   0  0  0  0  0  0
   -8.0304   -0.3571   -4.6017 C   0  0  0  0  0  0
   -8.4146    0.8244   -3.9736 C   0  0  0  0  0  0
   -7.5293   -1.8909   -6.7696 Cl  0  0  0  0  0  0
  -13.8884    3.8971   -6.1637 C   0  0  0  0  0  0
  -11.4126    1.3579   -4.0105 H   0  0  0  0  0  0
  -11.5988    1.1789   -5.7523 H   0  0  0  0  0  0
  -12.9595    1.6103   -4.7281 H   0  0  0  0  0  0
   -9.8498    4.8380   -2.0720 H   0  0  0  0  0  0
   -8.7212    8.6381   -6.8034 H   0  0  0  0  0  0
  -10.3722    8.2346   -6.3921 H   0  0  0  0  0  0
   -9.3558    7.0584   -7.2125 H   0  0  0  0  0  0
   -8.2317    5.9134   -0.5669 H   0  0  0  0  0  0
   -8.3510    4.1893   -0.3759 H   0  0  0  0  0  0
   -6.3809    4.6802    0.8951 H   0  0  0  0  0  0
   -3.8495    5.3531   -0.2965 H   0  0  0  0  0  0
   -4.1497    4.7111    1.2751 H   0  0  0  0  0  0
   -4.3914    2.3897    0.2987 H   0  0  0  0  0  0
   -4.0255    3.0357   -1.2816 H   0  0  0  0  0  0
   -1.7801    3.8069   -0.4328 H   0  0  0  0  0  0
   -2.1472    3.1139    1.1280 H   0  0  0  0  0  0
   -2.3736    0.8451    0.0451 H   0  0  0  0  0  0
   -1.9585    1.5518   -1.4957 H   0  0  0  0  0  0
    0.2812    2.2395   -0.5637 H   0  0  0  0  0  0
   -0.1427    1.5220    0.9653 H   0  0  0  0  0  0
   -0.4279   -0.7084   -0.2522 H   0  0  0  0  0  0
    0.1627    0.0439   -1.7021 H   0  0  0  0  0  0
    0.8982   -1.2624    3.3761 H   0  0  0  0  0  0
   -0.1541   -0.6848    2.1057 H   0  0  0  0  0  0
    1.1566    0.3247    2.6670 H   0  0  0  0  0  0
    1.1461   -3.3866    1.8376 H   0  0  0  0  0  0
    1.8395   -3.2180    0.2339 H   0  0  0  0  0  0
    0.2207   -2.6346    0.5658 H   0  0  0  0  0  0
    3.8072   -2.0849    1.1195 H   0  0  0  0  0  0
    5.7139   -1.7405    0.6045 H   0  0  0  0  0  0
    5.6700   -0.2910   -0.4273 H   0  0  0  0  0  0
    8.0162   -0.6272    0.0948 H   0  0  0  0  0  0
    8.1276    1.4924    1.8047 H   0  0  0  0  0  0
    7.3523    1.6559    0.2476 H   0  0  0  0  0  0
    6.0258    1.4593    2.9679 H   0  0  0  0  0  0
    5.5826    3.5061    3.2271 H   0  0  0  0  0  0
    3.7034    4.9856    1.6119 H   0  0  0  0  0  0
    4.6036    5.5271    2.9992 H   0  0  0  0  0  0
    4.4027    5.7000   -0.5937 H   0  0  0  0  0  0
    5.8977    7.0416   -1.9937 H   0  0  0  0  0  0
    8.5854    7.5110    1.3352 H   0  0  0  0  0  0
    7.0780    6.1806    2.7344 H   0  0  0  0  0  0
   10.1995    9.3055   -3.9683 H   0  0  0  0  0  0
    8.3252    9.8654    1.0030 H   0  0  0  0  0  0
    9.1178   11.1735    0.1674 H   0  0  0  0  0  0
   10.0730    9.8767    0.8633 H   0  0  0  0  0  0
    7.3864   -1.9489    2.0309 H   0  0  0  0  0  0
    2.4617   -2.5354    3.5943 H   0  0  0  0  0  0
    6.3067   -3.5754    5.5009 H   0  0  0  0  0  0
    5.1713   -4.1154    6.8023 H   0  0  0  0  0  0
    5.6579   -5.5959    4.0820 H   0  0  0  0  0  0
    4.5166   -6.1471    5.3733 H   0  0  0  0  0  0
   -9.0067    2.7152   -6.7474 H   0  0  0  0  0  0
   -8.3330    0.6268   -7.8395 H   0  0  0  0  0  0
   -7.7530   -1.2163   -4.0085 H   0  0  0  0  0  0
   -8.4286    0.8593   -2.8932 H   0  0  0  0  0  0
  -14.0630    2.8440   -6.3823 H   0  0  0  0  0  0
  -14.0591    4.4375   -7.0953 H   0  0  0  0  0  0
  -14.6633    4.2117   -5.4645 H   0  0  0  0  0  0
  1  2  1  0  0  0
  1 70  1  0  0  0
  1 71  1  0  0  0
  1 72  1  0  0  0
  2  3  2  0  0  0
  2  6  1  0  0  0
  3  4  1  0  0  0
  3 69  1  0  0  0
  4  5  1  0  0  0
  5  6  2  0  0  0
  5 11  1  0  0  0
  6  7  1  0  0  0
  7  8  2  0  0  0
  7 62  1  0  0  0
  8  9  1  0  0  0
  9 10  1  0  0  0
  9 16  1  0  0  0
  9 73  1  0  0  0
 10 11  1  0  0  0
 10 14  2  0  0  0
 11 12  1  0  0  0
 12 13  2  0  0  0
 12 15  1  0  0  0
 13 14  1  0  0  0
 15 74  1  0  0  0
 15 75  1  0  0  0
 15 76  1  0  0  0
 16 17  1  0  0  0
 16 77  1  0  0  0
 16 78  1  0  0  0
 17 18  2  0  0  0
 17 19  1  0  0  0
 19 20  1  0  0  0
 19 79  1  0  0  0
 20 21  1  0  0  0
 20 80  1  0  0  0
 20 81  1  0  0  0
 21 22  1  0  0  0
 21 82  1  0  0  0
 21 83  1  0  0  0
 22 23  1  0  0  0
 22 84  1  0  0  0
 22 85  1  0  0  0
 23 24  1  0  0  0
 23 86  1  0  0  0
 23 87  1  0  0  0
 24 25  1  0  0  0
 24 88  1  0  0  0
 24 89  1  0  0  0
 25 26  1  0  0  0
 25 90  1  0  0  0
 25 91  1  0  0  0
 26 27  1  0  0  0
 27 28  1  0  0  0
 27 29  1  0  0  0
 27 30  1  0  0  0
 28 92  1  0  0  0
 28 93  1  0  0  0
 28 94  1  0  0  0
 29 95  1  0  0  0
 29 96  1  0  0  0
 29 97  1  0  0  0
 30 31  1  0  0  0
 30 55  1  0  0  0
 30 98  1  0  0  0
 31 32  2  0  0  0
 31 33  1  0  0  0
 33 34  1  0  0  0
 33 37  1  0  0  0
 34 35  1  0  0  0
 34 99  1  0  0  0
 34100  1  0  0  0
 35 36  1  0  0  0
 35 54  1  0  0  0
 35101  1  0  0  0
 36 37  1  0  0  0
 36102  1  0  0  0
 36103  1  0  0  0
 37 38  1  0  0  0
 37104  1  0  0  0
 38 39  2  0  0  0
 38 40  1  0  0  0
 40 41  1  0  0  0
 40105  1  0  0  0
 41 42  1  0  0  0
 41106  1  0  0  0
 41107  1  0  0  0
 42 43  2  0  0  0
 42 47  1  0  0  0
 43 44  1  0  0  0
 43108  1  0  0  0
 44 45  2  0  0  0
 44109  1  0  0  0
 45 46  1  0  0  0
 45 48  1  0  0  0
 46 47  2  0  0  0
 46110  1  0  0  0
 47111  1  0  0  0
 48 49  2  0  0  0
 48 52  1  0  0  0
 49 50  1  0  0  0
 49 53  1  0  0  0
 50 51  2  0  0  0
 51 52  1  0  0  0
 51112  1  0  0  0
 53113  1  0  0  0
 53114  1  0  0  0
 53115  1  0  0  0
 54116  1  0  0  0
 55 56  1  0  0  0
 55117  1  0  0  0
 56 57  2  0  0  0
 56 58  1  0  0  0
 58 59  1  0  0  0
 58 61  1  0  0  0
 58 60  1  0  0  0
 59 60  1  0  0  0
 59118  1  0  0  0
 59119  1  0  0  0
 60120  1  0  0  0
 60121  1  0  0  0
 62 63  2  0  0  0
 62 67  1  0  0  0
 63 64  1  0  0  0
 63122  1  0  0  0
 64 65  2  0  0  0
 64123  1  0  0  0
 65 66  1  0  0  0
 65 68  1  0  0  0
 66 67  2  0  0  0
 66124  1  0  0  0
 67125  1  0  0  0
 69126  1  0  0  0
 69127  1  0  0  0
 69128  1  0  0  0
M  END
$$$$
