6BOY_molecule8_molecule
                    3D
 Schrodinger Suite 2023-4.
 25 28  0  0  1  0            999 V2000
   76.7220   32.8550   57.5780 N   0  0  0  0  0  0
   75.4010   34.6710   58.6480 C   0  0  0  0  0  0
   75.7280   33.7060   57.5680 C   0  0  0  0  0  0
   75.6900   32.6030   55.6680 C   0  0  0  0  0  0
   74.8330   34.4330   53.6010 C   0  0  0  0  0  0
   75.2760   32.2180   54.2650 C   0  0  0  0  0  0
   75.1530   35.6020   52.7550 C   0  0  0  0  0  0
   74.8930   36.8990   53.1860 C   0  0  0  0  0  0
   75.2230   37.9860   52.3970 C   0  0  0  0  0  0
   75.8170   37.7720   51.1730 C   0  0  0  0  0  0
   76.0890   36.5000   50.7220 C   0  0  0  0  0  0
   75.7540   35.4180   51.5150 C   0  0  0  0  0  0
   73.7180   34.5670   54.5710 C   0  0  0  0  0  0
   73.8740   34.2040   55.8890 C   0  0  0  0  0  0
   71.6050   35.0640   55.4220 C   0  0  0  0  0  0
   70.1790   35.4990   55.5750 C   0  0  0  0  0  0
   72.3820   35.0500   54.3060 C   0  0  0  0  0  0
   71.8610   35.4410   52.9550 C   0  0  0  0  0  0
   76.7000   32.1520   56.3760 N   0  0  0  0  0  0
   75.5520   33.3890   53.4210 N   0  0  0  0  0  0
   75.0320   33.5840   56.3820 N   0  0  0  0  0  0
   72.4510   34.4740   56.8220 S   0  0  0  0  0  0
   76.2300   39.1370   50.1740 Cl  0  0  0  0  0  0
   74.2074   32.0036   54.2487 H   0  0  0  0  0  0
   75.8813   31.3770   53.9267 H   0  0  0  0  0  0
  1  3  2  0  0  0
  1 19  1  0  0  0
  2  3  1  0  0  0
  3 21  1  0  0  0
  4  6  1  0  0  0
  4 19  2  0  0  0
  4 21  1  0  0  0
  5  7  1  0  0  0
  5 13  1  0  0  0
  5 20  2  0  0  0
  6 20  1  0  0  0
  6 24  1  0  0  0
  6 25  1  0  0  0
  7  8  1  0  0  0
  7 12  2  0  0  0
  8  9  2  0  0  0
  9 10  1  0  0  0
 10 11  2  0  0  0
 10 23  1  0  0  0
 11 12  1  0  0  0
 13 14  2  0  0  0
 13 17  1  0  0  0
 14 21  1  0  0  0
 14 22  1  0  0  0
 15 16  1  0  0  0
 15 17  2  0  0  0
 15 22  1  0  0  0
 17 18  1  0  0  0
M  END
$$$$
