8PC2_chainB_molecule1_molecule
                    3D
 Schrodinger Suite 2023-4.
 68 71  0  0  1  0            999 V2000
  -29.8510   10.3540  -32.3840 N   0  0  0  0  0  0
  -31.1320   10.7910  -31.8230 C   0  0  2  0  0  0
  -31.8260   11.6260  -32.6770 C   0  0  0  0  0  0
  -31.2420   12.3480  -33.4500 O   0  0  0  0  0  0
  -31.7260    9.9090  -31.5870 H   0  0  0  0  0  0
  -34.5660   13.5210  -32.4240 C   0  0  0  0  0  0
  -34.9780   11.9930  -33.5830 H   0  0  0  0  0  0
  -34.0840   12.4650  -33.3210 C   0  0  0  0  0  0
  -33.6170   13.0140  -34.0770 H   0  0  0  0  0  0
  -33.1520   11.5930  -32.5690 N   0  0  0  0  0  0
  -29.8780    9.6680  -33.5120 C   0  0  0  0  0  0
  -30.9090    9.5020  -34.1450 O   0  0  0  0  0  0
  -28.5360    9.1740  -34.0410 C   0  0  1  0  0  0
  -27.8090    9.1700  -33.2380 H   0  0  0  0  0  0
  -28.6660    7.8010  -34.5710 N   0  0  0  0  0  0
  -29.3190    7.6600  -35.3160 H   0  0  0  0  0  0
  -28.0160   10.1260  -35.1690 C   0  0  0  0  0  0
  -27.4600   12.1960  -35.3630 H   0  0  0  0  0  0
  -27.9910   11.5640  -34.6460 C   0  0  0  0  0  0
  -26.5580    9.6660  -35.4340 C   0  0  0  0  0  0
  -26.5470    8.9250  -36.2350 H   0  0  0  0  0  0
  -29.1770   11.1720  -36.7050 H   0  0  0  0  0  0
  -28.8730   10.1510  -36.4760 C   0  0  0  0  0  0
  -27.9300    6.7760  -34.1690 C   0  0  0  0  0  0
  -28.2760    5.5390  -34.8890 C   0  0  0  0  0  0
  -27.1070    6.7570  -33.2630 O   0  0  0  0  0  0
  -28.8700    5.6240  -36.0170 F   0  0  0  0  0  0
  -26.4340    4.5220  -34.1470 H   0  0  0  0  0  0
  -27.3560    4.3600  -34.6990 C   0  0  0  0  0  0
  -29.4400    3.7620  -34.2480 H   0  0  0  0  0  0
  -28.6610    4.4640  -33.9440 C   0  0  0  0  0  0
  -30.7800   11.5410  -30.5220 C   0  0  0  0  0  0
  -30.7550   12.5500  -30.8230 H   0  0  0  0  0  0
  -31.5960   11.2790  -29.9210 H   0  0  0  0  0  0
  -34.5190   14.4450  -29.1060 H   0  0  0  0  0  0
  -34.7580   14.5250  -30.1660 C   0  0  0  0  0  0
  -34.3160   13.5270  -31.0390 N   0  0  0  0  0  0
  -35.3080   14.6030  -32.9010 C   0  0  0  0  0  0
  -35.7450   15.6060  -32.0090 C   0  0  0  0  0  0
  -36.3220   16.4330  -32.3990 H   0  0  0  0  0  0
  -35.5090   15.5870  -30.6250 C   0  0  0  0  0  0
  -39.1870   17.3390  -30.3960 H   0  0  0  0  0  0
  -38.2340   17.0520  -30.8410 C   0  0  0  0  0  0
  -35.0210   17.2330  -28.4930 S   0  0  0  0  0  0
  -35.9360   16.5790  -29.7820 C   0  0  0  0  0  0
  -37.1110   17.2750  -29.8110 C   0  0  0  0  0  0
  -37.2400   18.2480  -28.8740 N   0  0  0  0  0  0
  -36.1100   19.0810  -27.2090 H   0  0  0  0  0  0
  -36.1880   18.3780  -28.0380 C   0  0  0  0  0  0
  -28.8840   11.6600  -29.5430 H   0  0  0  0  0  0
  -29.4540   10.9370  -30.1220 C   0  0  2  0  0  0
  -27.4640   11.5940  -33.6950 H   0  0  0  0  0  0
  -29.0040   11.9490  -34.5260 H   0  0  0  0  0  0
  -26.1230    9.2210  -34.5380 H   0  0  0  0  0  0
  -25.9500   10.5220  -35.7340 H   0  0  0  0  0  0
  -29.7620    9.5370  -36.3670 H   0  0  0  0  0  0
  -28.2860    9.7690  -37.3090 H   0  0  0  0  0  0
  -27.2880    3.6300  -35.5060 H   0  0  0  0  0  0
  -28.5890    4.6480  -32.8720 H   0  0  0  0  0  0
  -38.2830   16.0010  -31.1260 H   0  0  0  0  0  0
  -38.0540   17.6680  -31.7220 H   0  0  0  0  0  0
  -28.7400   10.6460  -31.4270 C   0  0  0  0  0  0
  -28.0860    9.7820  -31.3020 H   0  0  0  0  0  0
  -28.1700   11.5190  -31.7410 H   0  0  0  0  0  0
  -29.6280    9.7140  -29.3610 O   0  0  0  0  0  0
  -30.6150    9.5300  -29.2400 H   0  0  0  0  0  0
  -33.6120   11.0000  -31.9060 H   0  0  0  0  0  0
  -35.5473   14.6723  -33.9519 H   0  0  0  0  0  0
  1  2  1  0  0  0
  1 11  1  0  0  0
  1 62  1  0  0  0
  2  3  1  0  0  0
  2  5  1  0  0  0
  2 32  1  0  0  0
  3  4  2  0  0  0
  3 10  1  0  0  0
  6  8  1  0  0  0
  6 37  2  0  0  0
  6 38  1  0  0  0
  7  8  1  0  0  0
  8  9  1  0  0  0
  8 10  1  0  0  0
 10 67  1  0  0  0
 11 12  2  0  0  0
 11 13  1  0  0  0
 13 14  1  0  0  0
 13 15  1  0  0  0
 13 17  1  0  0  0
 15 16  1  0  0  0
 15 24  1  0  0  0
 17 19  1  0  0  0
 17 20  1  0  0  0
 17 23  1  0  0  0
 18 19  1  0  0  0
 19 52  1  0  0  0
 19 53  1  0  0  0
 20 21  1  0  0  0
 20 54  1  0  0  0
 20 55  1  0  0  0
 22 23  1  0  0  0
 23 56  1  0  0  0
 23 57  1  0  0  0
 24 25  1  0  0  0
 24 26  2  0  0  0
 25 27  1  0  0  0
 25 29  1  0  0  0
 25 31  1  0  0  0
 28 29  1  0  0  0
 29 31  1  0  0  0
 29 58  1  0  0  0
 30 31  1  0  0  0
 31 59  1  0  0  0
 32 33  1  0  0  0
 32 34  1  0  0  0
 32 51  1  0  0  0
 35 36  1  0  0  0
 36 37  1  0  0  0
 36 41  2  0  0  0
 38 39  2  0  0  0
 38 68  1  0  0  0
 39 40  1  0  0  0
 39 41  1  0  0  0
 41 45  1  0  0  0
 42 43  1  0  0  0
 43 46  1  0  0  0
 43 60  1  0  0  0
 43 61  1  0  0  0
 44 45  1  0  0  0
 44 49  1  0  0  0
 45 46  2  0  0  0
 46 47  1  0  0  0
 47 49  2  0  0  0
 48 49  1  0  0  0
 50 51  1  0  0  0
 51 62  1  0  0  0
 51 65  1  0  0  0
 62 63  1  0  0  0
 62 64  1  0  0  0
 65 66  1  0  0  0
M  END
$$$$
