7JTP_chainA_molecule2_molecule1
                    3D
 Schrodinger Suite 2023-4.
 34 36  0  0  1  0            999 V2000
    2.7660    6.3770  -11.0850 C   0  0  0  0  0  0
    3.4120    4.1360  -10.3240 C   0  0  1  0  0  0
    4.1930    3.2110  -11.3020 C   0  0  0  0  0  0
    5.6660    3.6340  -11.3310 C   0  0  0  0  0  0
    3.6110    3.3400  -12.7090 C   0  0  0  0  0  0
    4.1070    1.7400  -10.8830 C   0  0  0  0  0  0
    3.7690    3.9310   -8.8440 C   0  0  0  0  0  0
    3.2480    3.0710   -6.6350 C   0  0  2  0  0  0
    4.6510    2.5470   -6.3810 C   0  0  0  0  0  0
    6.5650    2.5280   -4.8400 C   0  0  1  0  0  0
    7.4440    3.6900   -4.3810 C   0  0  0  0  0  0
    6.3800    1.5040   -3.7430 C   0  0  0  0  0  0
    5.2020    1.4290   -3.0160 C   0  0  0  0  0  0
    5.0640    0.5270   -1.9750 C   0  0  0  0  0  0
    6.1050   -0.3300   -1.6370 C   0  0  0  0  0  0
    5.9670   -1.2910   -0.5220 C   0  0  0  0  0  0
    6.8420   -1.6450    0.4740 C   0  0  0  0  0  0
    8.2250   -1.1140    0.6840 C   0  0  0  0  0  0
    5.1620   -2.9490    1.0410 C   0  0  0  0  0  0
    7.2780   -0.2630   -2.3740 C   0  0  0  0  0  0
    7.4100    0.6410   -3.4100 C   0  0  0  0  0  0
    2.2000    2.0570   -6.1460 C   0  0  0  0  0  0
    1.0370    2.2550   -7.1030 C   0  0  2  0  0  0
    1.7220    2.4920   -8.4440 C   0  0  0  0  0  0
    3.6860    5.5330  -10.6100 N   0  0  0  0  0  0
    2.9410    3.2150   -8.0630 N   0  0  0  0  0  0
    5.2730    3.0370   -5.3040 N   0  0  0  0  0  0
    6.3670   -2.5910    1.3570 N   0  0  0  0  0  0
    5.1520    1.7120   -7.1310 O   0  0  0  0  0  0
    0.2880    3.4150   -6.7270 O   0  0  0  0  0  0
    4.7940    4.4240   -8.4070 O   0  0  0  0  0  0
    1.6080    6.0440  -11.3320 O   0  0  0  0  0  0
    4.4840   -2.1870   -0.3430 S   0  0  0  0  0  0
    3.0246    7.4090  -11.2707 H   0  0  0  0  0  0
  1 25  1  0  0  0
  1 32  2  0  0  0
  1 34  1  0  0  0
  2  3  1  0  0  0
  2  7  1  0  0  0
  2 25  1  0  0  0
  3  4  1  0  0  0
  3  5  1  0  0  0
  3  6  1  0  0  0
  7 26  1  0  0  0
  7 31  2  0  0  0
  8  9  1  0  0  0
  8 22  1  0  0  0
  8 26  1  0  0  0
  9 27  1  0  0  0
  9 29  2  0  0  0
 10 11  1  0  0  0
 10 12  1  0  0  0
 10 27  1  0  0  0
 12 13  1  0  0  0
 12 21  2  0  0  0
 13 14  2  0  0  0
 14 15  1  0  0  0
 15 16  1  0  0  0
 15 20  2  0  0  0
 16 17  2  0  0  0
 16 33  1  0  0  0
 17 18  1  0  0  0
 17 28  1  0  0  0
 19 28  2  0  0  0
 19 33  1  0  0  0
 20 21  1  0  0  0
 22 23  1  0  0  0
 23 24  1  0  0  0
 23 30  1  0  0  0
 24 26  1  0  0  0
M  END
$$$$
