7JTP_chainA_molecule2_molecule
                    3D
 Schrodinger Suite 2023-4.
 37 40  0  0  1  0            999 V2000
   14.0860   15.4950  -14.2950 N   0  0  1  0  0  0
   14.9340   16.2550  -15.2190 C   0  0  0  0  0  0
   10.2960    8.8020  -20.3010 O   0  0  0  0  0  0
   12.8520   14.9820  -14.9360 C   0  0  2  0  0  0
   10.1060   10.9210  -16.8260 C   0  0  0  0  0  0
   10.4250    9.6020  -16.8840 C   0  0  0  0  0  0
   10.1650    9.4900  -19.2720 C   0  0  0  0  0  0
    9.8070   10.8800  -19.2330 C   0  0  0  0  0  0
    9.7710   11.5790  -18.0800 C   0  0  0  0  0  0
    9.3660   13.0090  -18.1050 C   0  0  0  0  0  0
   10.0720   10.6220  -12.5600 C   0  0  0  0  0  0
    9.9820   10.6920  -11.1730 C   0  0  0  0  0  0
    8.9540    9.8980  -10.4480 C   0  0  0  0  0  0
    7.7650    9.5600  -11.1110 C   0  0  0  0  0  0
   12.0370   16.0910  -15.5820 C   0  0  0  0  0  0
    6.8060    8.7560  -10.4970 C   0  0  0  0  0  0
   11.9940   14.1530  -13.9950 C   0  0  0  0  0  0
   14.8150   14.4190  -13.5940 C   0  0  1  0  0  0
    7.0070    8.3210   -9.1910 C   0  0  0  0  0  0
    8.1660    8.6520   -8.5100 C   0  0  0  0  0  0
    9.1080    9.4160   -9.1520 C   0  0  0  0  0  0
   16.0510   14.9460  -12.8800 C   0  0  0  0  0  0
   10.8740   11.5280  -10.4990 C   0  0  0  0  0  0
   11.8100   12.2910  -11.1750 C   0  0  0  0  0  0
   13.9180   13.6390  -12.6410 C   0  0  0  0  0  0
   11.8770   12.2410  -12.5620 C   0  0  0  0  0  0
   11.0120   11.3770  -13.2530 C   0  0  0  0  0  0
   10.0310   11.5190  -15.4590 C   0  0  0  0  0  0
    9.3610   13.5080  -19.3180 F   0  0  0  0  0  0
    8.1500   13.2050  -17.5950 F   0  0  0  0  0  0
   10.1840   13.7790  -17.4070 F   0  0  0  0  0  0
   10.2560    9.6790   -8.4930 F   0  0  0  0  0  0
   12.7300   13.0950  -13.3010 N   0  0  0  0  0  0
   11.0880   11.2550  -14.6520 N   0  0  0  0  0  0
   10.4490    8.9270  -18.0590 N   0  0  0  0  0  0
    9.0450   12.1570  -15.0930 O   0  0  0  0  0  0
    5.9130    8.4741  -11.0350 H   0  0  0  0  0  0
  1  2  1  0  0  0
  1  4  1  0  0  0
  1 18  1  0  0  0
  3  7  2  0  0  0
  4 15  1  0  0  0
  4 17  1  0  0  0
  5  6  2  0  0  0
  5  9  1  0  0  0
  5 28  1  0  0  0
  6 35  1  0  0  0
  7  8  1  0  0  0
  7 35  1  0  0  0
  8  9  2  0  0  0
  9 10  1  0  0  0
 10 29  1  0  0  0
 10 30  1  0  0  0
 10 31  1  0  0  0
 11 12  2  0  0  0
 11 27  1  0  0  0
 12 13  1  0  0  0
 12 23  1  0  0  0
 13 14  1  0  0  0
 13 21  2  0  0  0
 14 16  2  0  0  0
 16 19  1  0  0  0
 16 37  1  0  0  0
 17 33  1  0  0  0
 18 22  1  0  0  0
 18 25  1  0  0  0
 19 20  2  0  0  0
 20 21  1  0  0  0
 21 32  1  0  0  0
 23 24  2  0  0  0
 24 26  1  0  0  0
 25 33  1  0  0  0
 26 27  2  0  0  0
 26 33  1  0  0  0
 27 34  1  0  0  0
 28 34  1  0  0  0
 28 36  2  0  0  0
M  END
$$$$
