protac.smi:1
                    3D
 Schrodinger Suite 2023-4.
133139  0  0  1  0            999 V2000
   -8.3422   -8.1742    5.9674 C   0  0  0  0  0  0
   -9.2057   -8.9682    5.0081 C   0  0  0  0  0  0
   -9.2228   -8.9319    3.6041 C   0  0  0  0  0  0
  -10.3893  -10.1076    3.0411 S   0  0  0  0  0  0
  -10.7343  -10.4896    4.6888 C   0  0  0  0  0  0
  -10.0447   -9.8194    5.5721 N   0  0  0  0  0  0
   -8.4543   -8.0971    2.6312 C   0  0  0  0  0  0
   -7.9600   -8.6441    1.4436 C   0  0  0  0  0  0
   -7.2405   -7.8549    0.5505 C   0  0  0  0  0  0
   -7.0062   -6.5013    0.8273 C   0  0  0  0  0  0
   -7.5085   -5.9585    2.0165 C   0  0  0  0  0  0
   -8.2244   -6.7484    2.9106 C   0  0  0  0  0  0
   -6.1981   -5.5993   -0.1286 C   0  0  2  0  0  0
   -5.5674   -6.3117   -1.3496 C   0  0  0  0  0  0
   -5.2270   -4.7315    0.5514 N   0  0  0  0  0  0
   -4.1404   -5.1293    1.2457 C   0  0  0  0  0  0
   -3.8200   -6.3105    1.3789 O   0  0  0  0  0  0
   -3.2803   -4.0317    1.9135 C   0  0  2  0  0  0
   -3.8603   -3.5644    3.2661 C   0  0  0  0  0  0
   -3.6312   -2.0581    3.2882 C   0  0  2  0  0  0
   -3.8060   -1.6865    1.8087 C   0  0  0  0  0  0
   -3.1443   -2.7966    1.1088 N   0  0  0  0  0  0
   -2.2861   -2.6916    0.0587 C   0  0  0  0  0  0
   -1.6039   -3.6430   -0.3291 O   0  0  0  0  0  0
   -2.2135   -1.3670   -0.7631 C   0  0  2  0  0  0
   -2.7277   -1.4875   -2.2513 C   0  0  0  0  0  0
   -2.7911   -0.0742   -2.8889 C   0  0  0  0  0  0
   -4.1648   -2.0738   -2.2983 C   0  0  0  0  0  0
   -1.8104   -2.3607   -3.1507 C   0  0  0  0  0  0
   -0.8453   -0.8338   -0.6931 N   0  0  0  0  0  0
   -0.2856   -0.2594    0.3857 C   0  0  0  0  0  0
   -0.9145   -0.0209    1.4194 O   0  0  0  0  0  0
    1.1939    0.1443    0.2392 C   0  0  0  0  0  0
    1.8650    0.2165    1.5419 N   0  0  0  0  0  0
    2.2078   -0.8484    2.2947 C   0  0  0  0  0  0
    2.0005   -2.0120    1.9422 O   0  0  0  0  0  0
    2.8439   -0.5511    3.6344 C   0  0  0  0  0  0
    3.4765    0.6730    3.8976 C   0  0  0  0  0  0
    4.0591    0.9154    5.1393 C   0  0  0  0  0  0
    4.0211   -0.0569    6.1374 C   0  0  0  0  0  0
    3.3923   -1.2907    5.9066 C   0  0  0  0  0  0
    2.8146   -1.5183    4.6495 C   0  0  0  0  0  0
    3.3279   -2.3503    6.9542 C   0  0  0  0  0  0
    3.6307   -3.6767    6.6395 C   0  0  0  0  0  0
    3.5646   -4.6730    7.6077 C   0  0  0  0  0  0
    3.1962   -4.3822    8.9281 C   0  0  0  0  0  0
    2.8634   -3.0462    9.2570 C   0  0  0  0  0  0
    2.9431   -2.0513    8.2655 C   0  0  0  0  0  0
    2.3890   -2.7721   10.5602 N   0  0  0  0  0  0
    1.5895   -1.7751   11.0044 C   0  0  0  0  0  0
    1.1650   -0.8483   10.3151 O   0  0  0  0  0  0
    1.2982   -1.8637   12.4229 C   0  0  0  0  0  0
    0.7860   -3.0064   12.9434 C   0  0  0  0  0  0
    0.4488   -3.1822   14.2545 N   0  0  0  0  0  0
    0.5810   -2.2004   15.1859 C   0  0  0  0  0  0
    0.2282   -2.3559   16.3521 O   0  0  0  0  0  0
    1.1623   -0.9619   14.6715 C   0  0  0  0  0  0
    1.5183   -0.7430   13.3705 C   0  0  0  0  0  0
    2.1449    0.5982   12.9509 C   0  0  0  0  0  0
    2.4980    1.3314   14.0094 F   0  0  0  0  0  0
    3.2428    0.3916   12.2225 F   0  0  0  0  0  0
    1.2676    1.3004   12.2344 F   0  0  0  0  0  0
    3.1714   -5.4222    9.8590 N   0  0  0  0  0  0
    2.6955   -6.7706    9.5356 C   0  0  0  0  0  0
    1.9467   -7.5082   10.6708 C   0  0  2  0  0  0
    2.7816   -7.4796   11.9834 N   0  3  1  0  0  0
    3.2077   -6.0263   12.3360 C   0  0  2  0  0  0
    3.9084   -5.3688   11.1261 C   0  0  0  0  0  0
    4.1528   -6.0354   13.5580 C   0  0  0  0  0  0
    2.0063   -8.1355   13.1561 C   0  0  0  0  0  0
    1.6686   -8.9708   10.2566 C   0  0  0  0  0  0
    4.6165    0.2064    7.3246 F   0  0  0  0  0  0
   -2.3008   -1.7925    3.7037 O   0  0  0  0  0  0
   -7.5029   -7.6911    5.4674 H   0  0  0  0  0  0
   -7.9101   -8.8027    6.7474 H   0  0  0  0  0  0
   -8.9122   -7.3898    6.4658 H   0  0  0  0  0  0
  -11.4701  -11.2354    4.9504 H   0  0  0  0  0  0
   -8.1200   -9.6867    1.2105 H   0  0  0  0  0  0
   -6.8680   -8.3171   -0.3507 H   0  0  0  0  0  0
   -7.3440   -4.9175    2.2536 H   0  0  0  0  0  0
   -8.6063   -6.3026    3.8174 H   0  0  0  0  0  0
   -6.9340   -4.9104   -0.5453 H   0  0  0  0  0  0
   -6.3292   -6.7634   -1.9858 H   0  0  0  0  0  0
   -4.8715   -7.0954   -1.0475 H   0  0  0  0  0  0
   -5.0132   -5.6080   -1.9723 H   0  0  0  0  0  0
   -5.4467   -3.7463    0.5508 H   0  0  0  0  0  0
   -2.3063   -4.5054    2.0512 H   0  0  0  0  0  0
   -4.9403   -3.7238    3.3139 H   0  0  0  0  0  0
   -3.4338   -4.0901    4.1219 H   0  0  0  0  0  0
   -4.3089   -1.5119    3.9451 H   0  0  0  0  0  0
   -4.8746   -1.7004    1.5902 H   0  0  0  0  0  0
   -3.4165   -0.6852    1.6339 H   0  0  0  0  0  0
   -2.8553   -0.6162   -0.3079 H   0  0  0  0  0  0
   -3.1460   -0.1144   -3.9200 H   0  0  0  0  0  0
   -1.8135    0.4090   -2.9122 H   0  0  0  0  0  0
   -3.4721    0.5828   -2.3460 H   0  0  0  0  0  0
   -4.8691   -1.4578   -1.7375 H   0  0  0  0  0  0
   -4.2126   -3.0857   -1.8949 H   0  0  0  0  0  0
   -4.5374   -2.1336   -3.3220 H   0  0  0  0  0  0
   -2.1637   -2.3713   -4.1830 H   0  0  0  0  0  0
   -1.7836   -3.4022   -2.8326 H   0  0  0  0  0  0
   -0.7854   -1.9890   -3.1733 H   0  0  0  0  0  0
   -0.2812   -0.9826   -1.5171 H   0  0  0  0  0  0
    1.7252   -0.5601   -0.4040 H   0  0  0  0  0  0
    1.2480    1.1248   -0.2338 H   0  0  0  0  0  0
    2.0495    1.1417    1.9001 H   0  0  0  0  0  0
    3.5332    1.4464    3.1452 H   0  0  0  0  0  0
    4.5481    1.8602    5.3265 H   0  0  0  0  0  0
    2.3235   -2.4650    4.4686 H   0  0  0  0  0  0
    3.9292   -3.9431    5.6357 H   0  0  0  0  0  0
    3.8239   -5.6814    7.3191 H   0  0  0  0  0  0
    2.7052   -1.0249    8.4960 H   0  0  0  0  0  0
    2.5581   -3.5178   11.2185 H   0  0  0  0  0  0
    0.5514   -3.8915   12.3680 H   0  0  0  0  0  0
    0.0323   -4.0443   14.5738 H   0  0  0  0  0  0
    1.3084   -0.1800   15.4022 H   0  0  0  0  0  0
    2.0820   -6.7573    8.6332 H   0  0  0  0  0  0
    3.5845   -7.3460    9.2708 H   0  0  0  0  0  0
    1.0171   -6.9842   10.9030 H   0  0  0  0  0  0
    2.2821   -5.4969   12.5655 H   0  0  0  0  0  0
    4.2266   -4.3548   11.3685 H   0  0  0  0  0  0
    4.8443   -5.8990   10.9406 H   0  0  0  0  0  0
    4.5835   -5.0461   13.7180 H   0  0  0  0  0  0
    4.9827   -6.7315   13.4270 H   0  0  0  0  0  0
    3.6372   -6.2860   14.4842 H   0  0  0  0  0  0
    1.0990   -7.5548   13.3294 H   0  0  0  0  0  0
    2.6474   -8.1509   14.0353 H   0  0  0  0  0  0
    1.7777   -9.1657   12.8919 H   0  0  0  0  0  0
    1.2171   -9.0093    9.2643 H   0  0  0  0  0  0
    0.9635   -9.4693   10.9205 H   0  0  0  0  0  0
    2.5829   -9.5647   10.2179 H   0  0  0  0  0  0
   -2.0210   -0.9559    3.3235 H   0  0  0  0  0  0
    3.6285   -8.0014   11.8071 H   0  0  0  0  0  0
  1  2  1  0  0  0
  1 74  1  0  0  0
  1 75  1  0  0  0
  1 76  1  0  0  0
  2  3  2  0  0  0
  2  6  1  0  0  0
  3  4  1  0  0  0
  3  7  1  0  0  0
  4  5  1  0  0  0
  5  6  2  0  0  0
  5 77  1  0  0  0
  7  8  2  0  0  0
  7 12  1  0  0  0
  8  9  1  0  0  0
  8 78  1  0  0  0
  9 10  2  0  0  0
  9 79  1  0  0  0
 10 11  1  0  0  0
 10 13  1  0  0  0
 11 12  2  0  0  0
 11 80  1  0  0  0
 12 81  1  0  0  0
 13 14  1  0  0  0
 13 15  1  0  0  0
 13 82  1  0  0  0
 14 83  1  0  0  0
 14 84  1  0  0  0
 14 85  1  0  0  0
 15 16  1  0  0  0
 15 86  1  0  0  0
 16 17  2  0  0  0
 16 18  1  0  0  0
 18 19  1  0  0  0
 18 22  1  0  0  0
 18 87  1  0  0  0
 19 20  1  0  0  0
 19 88  1  0  0  0
 19 89  1  0  0  0
 20 21  1  0  0  0
 20 73  1  0  0  0
 20 90  1  0  0  0
 21 22  1  0  0  0
 21 91  1  0  0  0
 21 92  1  0  0  0
 22 23  1  0  0  0
 23 24  2  0  0  0
 23 25  1  0  0  0
 25 26  1  0  0  0
 25 30  1  0  0  0
 25 93  1  0  0  0
 26 27  1  0  0  0
 26 28  1  0  0  0
 26 29  1  0  0  0
 27 94  1  0  0  0
 27 95  1  0  0  0
 27 96  1  0  0  0
 28 97  1  0  0  0
 28 98  1  0  0  0
 28 99  1  0  0  0
 29100  1  0  0  0
 29101  1  0  0  0
 29102  1  0  0  0
 30 31  1  0  0  0
 30103  1  0  0  0
 31 32  2  0  0  0
 31 33  1  0  0  0
 33 34  1  0  0  0
 33104  1  0  0  0
 33105  1  0  0  0
 34 35  1  0  0  0
 34106  1  0  0  0
 35 36  2  0  0  0
 35 37  1  0  0  0
 37 38  2  0  0  0
 37 42  1  0  0  0
 38 39  1  0  0  0
 38107  1  0  0  0
 39 40  2  0  0  0
 39108  1  0  0  0
 40 41  1  0  0  0
 40 72  1  0  0  0
 41 42  2  0  0  0
 41 43  1  0  0  0
 42109  1  0  0  0
 43 44  2  0  0  0
 43 48  1  0  0  0
 44 45  1  0  0  0
 44110  1  0  0  0
 45 46  2  0  0  0
 45111  1  0  0  0
 46 47  1  0  0  0
 46 63  1  0  0  0
 47 48  2  0  0  0
 47 49  1  0  0  0
 48112  1  0  0  0
 49 50  1  0  0  0
 49113  1  0  0  0
 50 51  2  0  0  0
 50 52  1  0  0  0
 52 53  2  0  0  0
 52 58  1  0  0  0
 53 54  1  0  0  0
 53114  1  0  0  0
 54 55  1  0  0  0
 54115  1  0  0  0
 55 56  2  0  0  0
 55 57  1  0  0  0
 57 58  2  0  0  0
 57116  1  0  0  0
 58 59  1  0  0  0
 59 60  1  0  0  0
 59 61  1  0  0  0
 59 62  1  0  0  0
 63 64  1  0  0  0
 63 68  1  0  0  0
 64 65  1  0  0  0
 64117  1  0  0  0
 64118  1  0  0  0
 65 66  1  0  0  0
 65 71  1  0  0  0
 65119  1  0  0  0
 66 67  1  0  0  0
 66 70  1  0  0  0
 66133  1  0  0  0
 67 68  1  0  0  0
 67 69  1  0  0  0
 67120  1  0  0  0
 68121  1  0  0  0
 68122  1  0  0  0
 69123  1  0  0  0
 69124  1  0  0  0
 69125  1  0  0  0
 70126  1  0  0  0
 70127  1  0  0  0
 70128  1  0  0  0
 71129  1  0  0  0
 71130  1  0  0  0
 71131  1  0  0  0
 73132  1  0  0  0
M  CHG  1  66   1
M  END
$$$$
