6HAY_chainB_molecule1_molecule
                    3D
 Schrodinger Suite 2023-4.
 37 40  0  0  1  0            999 V2000
  -29.6170  -12.8620   32.3360 N   0  0  0  0  0  0
  -27.9660  -11.5420   28.1350 C   0  0  1  0  0  0
  -26.5530  -11.6160   27.5270 C   0  0  0  0  0  0
  -25.6750  -12.0490   28.6930 C   0  0  2  0  0  0
  -26.5580  -13.0340   29.4450 C   0  0  0  0  0  0
  -25.3370  -10.9110   29.4940 O   0  0  0  0  0  0
  -29.0190  -11.9350   27.1040 C   0  0  0  0  0  0
  -29.3380  -13.1070   26.9430 O   0  0  0  0  0  0
  -29.5230  -10.9370   26.3830 N   0  0  0  0  0  0
  -30.3940  -11.1790   25.2430 C   0  0  0  0  0  0
  -29.6960  -11.0570   23.9080 C   0  0  0  0  0  0
  -28.8910  -13.5530   31.2830 C   0  0  1  0  0  0
  -30.2920  -11.6050   22.7650 C   0  0  0  0  0  0
  -29.6620  -11.5300   21.5300 C   0  0  0  0  0  0
  -28.4290  -10.8900   21.4070 C   0  0  0  0  0  0
  -27.8290  -10.3520   22.5420 C   0  0  0  0  0  0
  -28.4470  -10.4520   23.7750 N   0  0  0  0  0  0
  -27.7970  -10.7520   20.0770 C   0  0  0  0  0  0
  -28.3050  -10.3050   18.8800 C   0  0  0  0  0  0
  -27.3990  -10.2900   17.8360 N   0  0  0  0  0  0
  -26.2360  -10.6930   18.2340 C   0  0  0  0  0  0
  -26.1210  -11.1270   19.8900 S   0  0  0  0  0  0
  -29.4090  -15.0130   31.0910 C   0  0  0  0  0  0
  -29.7010   -9.8490   18.6060 C   0  0  0  0  0  0
  -29.1950  -12.4540   33.5360 C   0  0  0  0  0  0
  -30.3320  -11.9230   34.4260 C   0  0  0  0  0  0
  -28.0300  -12.5010   33.9160 O   0  0  0  0  0  0
  -31.5340  -11.7140   33.7060 F   0  0  0  0  0  0
  -30.5220  -12.4000   35.8100 C   0  0  0  0  0  0
  -30.1060  -10.9780   35.5380 C   0  0  0  0  0  0
  -28.9950  -12.6710   30.0310 C   0  0  0  0  0  0
  -28.7840  -15.6800   29.8630 C   0  0  0  0  0  0
  -30.9310  -15.0350   30.9320 C   0  0  0  0  0  0
  -29.0460  -15.8460   32.3270 C   0  0  0  0  0  0
  -27.8960  -12.4630   29.2810 N   0  0  0  0  0  0
  -30.0320  -12.0630   29.8140 O   0  0  0  0  0  0
  -31.2527  -12.0930   22.8381 H   0  0  0  0  0  0
  1 12  1  0  0  0
  1 25  1  0  0  0
  2  3  1  0  0  0
  2  7  1  0  0  0
  2 35  1  0  0  0
  3  4  1  0  0  0
  4  5  1  0  0  0
  4  6  1  0  0  0
  5 35  1  0  0  0
  7  8  2  0  0  0
  7  9  1  0  0  0
  9 10  1  0  0  0
 10 11  1  0  0  0
 11 13  1  0  0  0
 11 17  2  0  0  0
 12 23  1  0  0  0
 12 31  1  0  0  0
 13 14  2  0  0  0
 13 37  1  0  0  0
 14 15  1  0  0  0
 15 16  2  0  0  0
 15 18  1  0  0  0
 16 17  1  0  0  0
 18 19  2  0  0  0
 18 22  1  0  0  0
 19 20  1  0  0  0
 19 24  1  0  0  0
 20 21  2  0  0  0
 21 22  1  0  0  0
 23 32  1  0  0  0
 23 33  1  0  0  0
 23 34  1  0  0  0
 25 26  1  0  0  0
 25 27  2  0  0  0
 26 28  1  0  0  0
 26 29  1  0  0  0
 26 30  1  0  0  0
 29 30  1  0  0  0
 31 35  1  0  0  0
 31 36  2  0  0  0
M  END
$$$$
