6HAY_chainB_molecule1_molecule2
                    3D
 Schrodinger Suite 2023-4.
 21 23  0  0  1  0            999 V2000
  -32.6940  -17.9950   27.5420 N   0  0  0  0  0  0
  -33.8140  -17.3270   26.8740 C   0  0  0  0  0  0
  -34.5400  -16.4200   27.8600 C   0  0  0  0  0  0
  -34.9880  -17.1790   29.0340 N   0  0  0  0  0  0
  -33.9570  -18.0250   29.6480 C   0  0  0  0  0  0
  -33.2360  -18.8600   28.5950 C   0  0  0  0  0  0
  -35.9100  -16.5520   29.9070 C   0  0  0  0  0  0
  -37.2390  -16.9630   29.9520 C   0  0  0  0  0  0
  -38.1310  -16.3080   30.7980 C   0  0  0  0  0  0
  -37.7330  -15.3070   31.5930 N   0  0  0  0  0  0
  -36.4400  -14.9140   31.6080 N   0  0  0  0  0  0
  -35.5350  -15.4850   30.7860 C   0  0  0  0  0  0
  -34.3070  -14.9570   30.8760 N   0  0  0  0  0  0
  -39.5720  -16.6840   30.8680 C   0  0  0  0  0  0
  -40.4680  -16.0320   31.7310 C   0  0  0  0  0  0
  -41.7980  -16.4570   31.8270 C   0  0  0  0  0  0
  -42.2530  -17.4970   31.0330 C   0  0  0  0  0  0
  -41.3930  -18.1270   30.1550 C   0  0  0  0  0  0
  -40.0630  -17.7380   30.0840 C   0  0  0  0  0  0
  -40.0670  -15.0520   32.5840 O   0  0  0  0  0  0
  -32.1815  -18.5476   26.8696 H   0  0  0  0  0  0
  1  2  1  0  0  0
  1  6  1  0  0  0
  1 21  1  0  0  0
  2  3  1  0  0  0
  3  4  1  0  0  0
  4  5  1  0  0  0
  4  7  1  0  0  0
  5  6  1  0  0  0
  7  8  1  0  0  0
  7 12  2  0  0  0
  8  9  2  0  0  0
  9 10  1  0  0  0
  9 14  1  0  0  0
 10 11  2  0  0  0
 11 12  1  0  0  0
 12 13  1  0  0  0
 14 15  1  0  0  0
 14 19  2  0  0  0
 15 16  2  0  0  0
 15 20  1  0  0  0
 16 17  1  0  0  0
 17 18  2  0  0  0
 18 19  1  0  0  0
M  END
$$$$
