protac.smi:1
                    3D
 Schrodinger Suite 2023-4.
129135  0  0  1  0            999 V2000
  -10.1801    8.6588    5.0986 C   0  0  0  0  0  0
  -10.4393    8.2589    6.5370 C   0  0  0  0  0  0
  -11.0659    9.1620    7.2708 N   0  0  0  0  0  0
  -11.2316    8.7660    8.5039 C   0  0  0  0  0  0
  -10.6086    7.1969    8.8632 S   0  0  0  0  0  0
  -10.0906    7.0692    7.1973 C   0  0  0  0  0  0
   -9.4077    5.8334    6.7069 C   0  0  0  0  0  0
   -8.4613    5.1730    7.4980 C   0  0  0  0  0  0
   -7.8268    4.0285    7.0245 C   0  0  0  0  0  0
   -8.1257    3.5396    5.7515 C   0  0  0  0  0  0
   -7.4534    2.2671    5.2499 C   0  0  0  0  0  0
   -6.1379    2.4933    4.6519 N   0  0  0  0  0  0
   -5.9194    3.0395    3.4426 C   0  0  0  0  0  0
   -6.8274    3.4225    2.7014 O   0  0  0  0  0  0
   -4.4439    3.2852    3.0575 C   0  0  2  0  0  0
   -4.0465    4.7776    3.1487 C   0  0  0  0  0  0
   -3.2791    5.0728    1.8635 C   0  0  1  0  0  0
   -1.9190    4.7046    2.0249 O   0  0  0  0  0  0
   -3.9579    4.1321    0.8611 C   0  0  0  0  0  0
   -4.1768    2.9129    1.6508 N   0  0  0  0  0  0
   -3.8767    1.6440    1.2640 C   0  0  0  0  0  0
   -3.8450    0.7052    2.0637 O   0  0  0  0  0  0
   -3.6872    1.3146   -0.2521 C   0  0  1  0  0  0
   -2.6997    0.2391   -0.4354 N   0  0  0  0  0  0
   -1.3783    0.3242   -0.2087 C   0  0  0  0  0  0
   -0.8205    1.3597    0.1602 O   0  0  0  0  0  0
   -0.5951   -0.9741   -0.4371 C   0  0  0  0  0  0
    0.7211   -0.8432    0.0896 O   0  0  0  0  0  0
    1.3891   -2.0869    0.2553 C   0  0  0  0  0  0
    2.7052   -1.8698    1.0136 C   0  0  0  0  0  0
    3.0958   -3.1115    1.5798 O   0  0  0  0  0  0
    4.2642   -3.0504    2.3852 C   0  0  0  0  0  0
    4.4358   -4.4048    3.0841 C   0  0  0  0  0  0
    3.3188   -4.6239    3.9368 O   0  0  0  0  0  0
    3.2063   -5.9559    4.4191 C   0  0  0  0  0  0
    2.0333   -6.0648    5.4090 C   0  0  0  0  0  0
    0.7515   -5.6397    4.8395 N   0  0  0  0  0  0
    0.1547   -4.4551    5.0657 C   0  0  0  0  0  0
    0.6301   -3.5893    5.8031 O   0  0  0  0  0  0
   -1.1910   -4.2344    4.3481 C   0  0  0  0  0  0
   -1.9005   -2.8802    4.6434 C   0  0  2  0  0  0
   -3.2559   -2.9405    4.1039 N   0  0  0  0  0  0
   -4.1206   -2.0352    4.4105 C   0  0  0  0  0  0
   -5.4881   -2.1267    3.8354 C   0  0  0  0  0  0
   -6.1932   -0.9728    3.4596 C   0  0  0  0  0  0
   -7.4715   -1.0652    2.9186 C   0  0  0  0  0  0
   -8.0564   -2.3155    2.7404 C   0  0  0  0  0  0
   -9.6405   -2.4307    2.0658 Cl  0  0  0  0  0  0
   -7.3711   -3.4729    3.1014 C   0  0  0  0  0  0
   -6.0922   -3.3796    3.6445 C   0  0  0  0  0  0
   -3.8685   -0.8566    5.2993 C   0  0  0  0  0  0
   -4.7539   -0.3907    6.3144 C   0  0  0  0  0  0
   -6.0226   -1.1026    6.7644 C   0  0  0  0  0  0
   -4.2730    0.7553    6.9625 C   0  0  0  0  0  0
   -4.8943    1.5614    8.0827 C   0  0  0  0  0  0
   -2.7370    1.2409    6.3320 S   0  0  0  0  0  0
   -2.6871   -0.0822    5.2224 C   0  0  0  0  0  0
   -1.6098   -0.3751    4.3985 N   0  0  0  0  0  0
   -0.7332    0.4419    3.7089 C   0  0  0  0  0  0
   -0.7574    1.9540    3.6882 C   0  0  0  0  0  0
    0.1515   -0.2685    3.0583 N   0  0  0  0  0  0
   -0.1407   -1.6057    3.2869 N   0  0  0  0  0  0
   -1.1712   -1.6479    4.0963 C   0  0  0  0  0  0
   -5.0331    0.9960   -1.0158 C   0  0  0  0  0  0
   -4.7436    0.7067   -2.5131 C   0  0  0  0  0  0
   -6.0316    2.1813   -0.9642 C   0  0  0  0  0  0
   -5.7380   -0.2570   -0.4289 C   0  0  0  0  0  0
   -9.0877    4.1804    4.9682 C   0  0  0  0  0  0
   -9.7194    5.3270    5.4415 C   0  0  0  0  0  0
   -9.4693    7.9970    4.6045 H   0  0  0  0  0  0
   -9.7629    9.6639    5.0219 H   0  0  0  0  0  0
  -11.0955    8.6449    4.5060 H   0  0  0  0  0  0
  -11.7186    9.3640    9.2599 H   0  0  0  0  0  0
   -8.2067    5.5465    8.4793 H   0  0  0  0  0  0
   -7.0999    3.5281    7.6464 H   0  0  0  0  0  0
   -7.3262    1.5879    6.0925 H   0  0  0  0  0  0
   -8.1062    1.7435    4.5481 H   0  0  0  0  0  0
   -5.3408    2.2687    5.2298 H   0  0  0  0  0  0
   -3.8623    2.6658    3.7414 H   0  0  0  0  0  0
   -4.9248    5.4275    3.1431 H   0  0  0  0  0  0
   -3.4829    5.0156    4.0522 H   0  0  0  0  0  0
   -3.3132    6.1186    1.5558 H   0  0  0  0  0  0
   -1.5421    4.5326    1.1585 H   0  0  0  0  0  0
   -4.9235    4.5694    0.6033 H   0  0  0  0  0  0
   -3.3664    4.0441   -0.0478 H   0  0  0  0  0  0
   -3.2306    2.1673   -0.7498 H   0  0  0  0  0  0
   -3.0826   -0.6475   -0.7295 H   0  0  0  0  0  0
   -1.1339   -1.8010    0.0317 H   0  0  0  0  0  0
   -0.5313   -1.1652   -1.5094 H   0  0  0  0  0  0
    0.7626   -2.7833    0.8172 H   0  0  0  0  0  0
    1.5834   -2.5392   -0.7185 H   0  0  0  0  0  0
    3.4762   -1.4991    0.3360 H   0  0  0  0  0  0
    2.5675   -1.1231    1.7976 H   0  0  0  0  0  0
    5.1349   -2.8259    1.7670 H   0  0  0  0  0  0
    4.1755   -2.2626    3.1361 H   0  0  0  0  0  0
    4.5091   -5.1900    2.3287 H   0  0  0  0  0  0
    5.3579   -4.4199    3.6671 H   0  0  0  0  0  0
    3.0467   -6.6367    3.5806 H   0  0  0  0  0  0
    4.1302   -6.2561    4.9169 H   0  0  0  0  0  0
    1.9246   -7.1026    5.7253 H   0  0  0  0  0  0
    2.2694   -5.5014    6.3143 H   0  0  0  0  0  0
    0.2822   -6.3086    4.2468 H   0  0  0  0  0  0
   -1.0338   -4.3431    3.2734 H   0  0  0  0  0  0
   -1.8459   -5.0559    4.6452 H   0  0  0  0  0  0
   -1.9621   -2.7980    5.7330 H   0  0  0  0  0  0
   -5.7607    0.0071    3.5847 H   0  0  0  0  0  0
   -8.0010   -0.1669    2.6358 H   0  0  0  0  0  0
   -7.8269   -4.4421    2.9624 H   0  0  0  0  0  0
   -5.5801   -4.2908    3.9204 H   0  0  0  0  0  0
   -6.2210   -0.9616    7.8268 H   0  0  0  0  0  0
   -5.9551   -2.1831    6.6376 H   0  0  0  0  0  0
   -6.9031   -0.7640    6.2196 H   0  0  0  0  0  0
   -5.9463    1.3250    8.2390 H   0  0  0  0  0  0
   -4.8433    2.6318    7.8821 H   0  0  0  0  0  0
   -4.3833    1.3880    9.0301 H   0  0  0  0  0  0
   -0.0411    2.3672    2.9771 H   0  0  0  0  0  0
   -0.5151    2.3801    4.6611 H   0  0  0  0  0  0
   -1.7342    2.3313    3.3985 H   0  0  0  0  0  0
   -5.6642    0.5504   -3.0776 H   0  0  0  0  0  0
   -4.1416   -0.1921   -2.6516 H   0  0  0  0  0  0
   -4.2157    1.5362   -2.9856 H   0  0  0  0  0  0
   -5.5947    3.0920   -1.3758 H   0  0  0  0  0  0
   -6.3680    2.3949    0.0505 H   0  0  0  0  0  0
   -6.9318    1.9703   -1.5432 H   0  0  0  0  0  0
   -6.6525   -0.4920   -0.9754 H   0  0  0  0  0  0
   -6.0304   -0.1095    0.6102 H   0  0  0  0  0  0
   -5.1048   -1.1438   -0.4743 H   0  0  0  0  0  0
   -9.3414    3.7972    3.9906 H   0  0  0  0  0  0
  -10.4600    5.8130    4.8232 H   0  0  0  0  0  0
  1  2  1  0  0  0
  1 70  1  0  0  0
  1 71  1  0  0  0
  1 72  1  0  0  0
  2  3  1  0  0  0
  2  6  2  0  0  0
  3  4  2  0  0  0
  4  5  1  0  0  0
  4 73  1  0  0  0
  5  6  1  0  0  0
  6  7  1  0  0  0
  7  8  2  0  0  0
  7 69  1  0  0  0
  8  9  1  0  0  0
  8 74  1  0  0  0
  9 10  2  0  0  0
  9 75  1  0  0  0
 10 11  1  0  0  0
 10 68  1  0  0  0
 11 12  1  0  0  0
 11 76  1  0  0  0
 11 77  1  0  0  0
 12 13  1  0  0  0
 12 78  1  0  0  0
 13 14  2  0  0  0
 13 15  1  0  0  0
 15 16  1  0  0  0
 15 20  1  0  0  0
 15 79  1  0  0  0
 16 17  1  0  0  0
 16 80  1  0  0  0
 16 81  1  0  0  0
 17 18  1  0  0  0
 17 19  1  0  0  0
 17 82  1  0  0  0
 18 83  1  0  0  0
 19 20  1  0  0  0
 19 84  1  0  0  0
 19 85  1  0  0  0
 20 21  1  0  0  0
 21 22  2  0  0  0
 21 23  1  0  0  0
 23 24  1  0  0  0
 23 64  1  0  0  0
 23 86  1  0  0  0
 24 25  1  0  0  0
 24 87  1  0  0  0
 25 26  2  0  0  0
 25 27  1  0  0  0
 27 28  1  0  0  0
 27 88  1  0  0  0
 27 89  1  0  0  0
 28 29  1  0  0  0
 29 30  1  0  0  0
 29 90  1  0  0  0
 29 91  1  0  0  0
 30 31  1  0  0  0
 30 92  1  0  0  0
 30 93  1  0  0  0
 31 32  1  0  0  0
 32 33  1  0  0  0
 32 94  1  0  0  0
 32 95  1  0  0  0
 33 34  1  0  0  0
 33 96  1  0  0  0
 33 97  1  0  0  0
 34 35  1  0  0  0
 35 36  1  0  0  0
 35 98  1  0  0  0
 35 99  1  0  0  0
 36 37  1  0  0  0
 36100  1  0  0  0
 36101  1  0  0  0
 37 38  1  0  0  0
 37102  1  0  0  0
 38 39  2  0  0  0
 38 40  1  0  0  0
 40 41  1  0  0  0
 40103  1  0  0  0
 40104  1  0  0  0
 41 42  1  0  0  0
 41 63  1  0  0  0
 41105  1  0  0  0
 42 43  2  0  0  0
 43 44  1  0  0  0
 43 51  1  0  0  0
 44 45  2  0  0  0
 44 50  1  0  0  0
 45 46  1  0  0  0
 45106  1  0  0  0
 46 47  2  0  0  0
 46107  1  0  0  0
 47 48  1  0  0  0
 47 49  1  0  0  0
 49 50  2  0  0  0
 49108  1  0  0  0
 50109  1  0  0  0
 51 52  1  0  0  0
 51 57  2  0  0  0
 52 53  1  0  0  0
 52 54  2  0  0  0
 53110  1  0  0  0
 53111  1  0  0  0
 53112  1  0  0  0
 54 55  1  0  0  0
 54 56  1  0  0  0
 55113  1  0  0  0
 55114  1  0  0  0
 55115  1  0  0  0
 56 57  1  0  0  0
 57 58  1  0  0  0
 58 59  1  0  0  0
 58 63  1  0  0  0
 59 60  1  0  0  0
 59 61  2  0  0  0
 60116  1  0  0  0
 60117  1  0  0  0
 60118  1  0  0  0
 61 62  1  0  0  0
 62 63  2  0  0  0
 64 65  1  0  0  0
 64 66  1  0  0  0
 64 67  1  0  0  0
 65119  1  0  0  0
 65120  1  0  0  0
 65121  1  0  0  0
 66122  1  0  0  0
 66123  1  0  0  0
 66124  1  0  0  0
 67125  1  0  0  0
 67126  1  0  0  0
 67127  1  0  0  0
 68 69  2  0  0  0
 68128  1  0  0  0
 69129  1  0  0  0
M  END
$$$$
