8QU8_chainF_molecule1_molecule2
                    3D
 Schrodinger Suite 2023-4.
 35 39  0  0  1  0            999 V2000
  206.2180  155.7990  188.1930 C   0  0  0  0  0  0
  207.5400  159.4230  188.0210 N   0  0  3  0  0  0
  206.6610  158.2690  188.2940 C   0  0  0  0  0  0
  208.4920  159.7860  189.1260 C   0  0  0  0  0  0
  207.2010  156.9080  187.8680 C   0  0  1  0  0  0
  209.4840  158.6970  189.4770 C   0  0  0  0  0  0
  208.8630  157.3250  189.6750 C   0  0  0  0  0  0
  208.5130  156.6740  188.4130 N   0  0  0  0  0  0
  209.4730  155.8950  187.7690 C   0  0  0  0  0  0
  209.1520  155.4520  186.5380 N   0  0  0  0  0  0
  210.5930  155.6090  188.4540 N   0  0  0  0  0  0
  211.2730  154.3500  186.5370 C   0  0  0  0  0  0
  211.4800  154.8410  187.8050 C   0  0  0  0  0  0
  210.0710  154.6850  185.9380 C   0  0  0  0  0  0
  208.8800  154.0880  182.6380 O   0  0  0  0  0  0
  208.8230  154.7950  183.8530 N   0  0  0  0  0  0
  209.7620  154.2370  184.5700 C   0  0  0  0  0  0
  210.4540  153.2280  183.9330 N   0  0  0  0  0  0
  209.8670  153.2040  182.7910 C   0  0  0  0  0  0
  211.3170  151.3990  182.0900 C   0  0  0  0  0  0
  212.8400  155.0900  181.9640 N   0  0  0  0  0  0
  212.1020  154.7310  181.1660 C   0  0  0  0  0  0
  211.8530  155.8000  178.3900 N   0  0  0  0  0  0
  211.1520  154.7710  178.8930 C   0  0  0  0  0  0
  209.9840  153.9420  177.9260 S   0  0  0  0  0  0
  211.2210  154.2120  180.1680 C   0  0  0  0  0  0
  210.1520  152.2980  181.6510 C   0  0  1  0  0  0
  208.8580  151.4670  181.5050 C   0  0  0  0  0  0
  208.7360  150.7760  180.1580 C   0  0  0  0  0  0
  208.5700  151.7930  179.0650 C   0  0  0  0  0  0
  209.5950  152.8740  179.2290 C   0  0  0  0  0  0
  210.3240  153.1240  180.3530 C   0  0  0  0  0  0
  209.7592  153.2384  185.7727 H   0  0  0  0  0  0
  210.6535  154.6143  187.3948 H   0  0  0  0  0  0
  206.6933  159.2086  186.5608 H   0  0  0  0  0  0
  1  5  1  0  0  0
  2  3  1  0  0  0
  2  4  1  0  0  0
  2 35  1  0  0  0
  3  5  1  0  0  0
  4  6  1  0  0  0
  5  8  1  0  0  0
  6  7  1  0  0  0
  7  8  1  0  0  0
  8  9  1  0  0  0
  9 10  2  0  0  0
  9 11  1  0  0  0
 10 14  1  0  0  0
 11 13  2  0  0  0
 12 13  1  0  0  0
 12 14  2  0  0  0
 12 33  1  0  0  0
 13 34  1  0  0  0
 14 17  1  0  0  0
 15 16  1  0  0  0
 15 19  1  0  0  0
 16 17  2  0  0  0
 17 18  1  0  0  0
 18 19  2  0  0  0
 19 27  1  0  0  0
 20 27  1  0  0  0
 21 22  3  0  0  0
 22 26  1  0  0  0
 23 24  1  0  0  0
 24 25  1  0  0  0
 24 26  2  0  0  0
 25 31  1  0  0  0
 26 32  1  0  0  0
 27 28  1  0  0  0
 27 32  1  0  0  0
 28 29  1  0  0  0
 29 30  1  0  0  0
 30 31  1  0  0  0
 31 32  2  0  0  0
M  END
$$$$
