protac.smi:1
                    3D
 Schrodinger Suite 2023-4.
135143  0  0  1  0            999 V2000
  -10.4823   -1.9536    0.9107 C   0  0  0  0  0  0
  -11.0385   -1.5088   -0.4268 C   0  0  0  0  0  0
  -10.3814   -1.4065   -1.6642 C   0  0  0  0  0  0
  -11.5220   -0.7891   -2.8383 S   0  0  0  0  0  0
  -12.7190   -0.7572   -1.5953 C   0  0  0  0  0  0
  -12.3119   -1.1558   -0.4204 N   0  0  0  0  0  0
   -8.9798   -1.7334   -2.0682 C   0  0  0  0  0  0
   -8.2802   -0.9193   -2.9652 C   0  0  0  0  0  0
   -6.9788   -1.2419   -3.3381 C   0  0  0  0  0  0
   -6.3632   -2.3862   -2.8247 C   0  0  0  0  0  0
   -7.0585   -3.1971   -1.9218 C   0  0  0  0  0  0
   -8.3590   -2.8723   -1.5475 C   0  0  0  0  0  0
   -4.9253   -2.7272   -3.2456 C   0  0  2  0  0  0
   -4.8942   -3.7116   -4.4373 C   0  0  0  0  0  0
   -5.4730   -3.1526   -5.6007 O   0  0  0  0  0  0
   -4.0580   -3.2177   -2.1657 N   0  0  0  0  0  0
   -3.7470   -2.5605   -1.0333 C   0  0  0  0  0  0
   -4.2116   -1.4576   -0.7372 O   0  0  0  0  0  0
   -2.8090   -3.3069   -0.0557 C   0  0  2  0  0  0
   -3.4942   -3.6487    1.2748 C   0  0  0  0  0  0
   -3.1057   -2.5346    2.2370 C   0  0  2  0  0  0
   -1.7305   -2.0628    1.7586 C   0  0  0  0  0  0
   -1.6598   -2.4703    0.3479 N   0  0  0  0  0  0
   -0.6080   -2.2120   -0.4749 C   0  0  0  0  0  0
   -0.5549   -2.6366   -1.6334 O   0  0  0  0  0  0
    0.5558   -1.3068    0.0315 C   0  0  2  0  0  0
    0.2002    0.2086   -0.1989 C   0  0  0  0  0  0
   -0.3915    0.6049   -1.5734 C   0  0  0  0  0  0
    1.3400    1.1605    0.2115 C   0  0  0  0  0  0
    1.8396   -1.7869   -0.5006 N   0  0  0  0  0  0
    2.5400   -1.3611   -1.6044 C   0  0  0  0  0  0
    3.6400   -2.1979   -1.6648 C   0  0  0  0  0  0
    3.6049   -3.0739   -0.6707 N   0  0  0  0  0  0
    2.4605   -2.8325    0.0693 N   0  0  0  0  0  0
    4.6360   -2.1539   -2.6100 O   0  0  0  0  0  0
    5.9150   -2.6591   -2.2273 C   0  0  0  0  0  0
    6.9648   -2.1652   -3.2358 C   0  0  0  0  0  0
    7.1306   -0.6344   -3.2324 C   0  0  0  0  0  0
    8.0976   -0.1364   -4.3237 C   0  0  0  0  0  0
    8.4122    1.3759   -4.1788 N   0  3  2  0  0  0
    7.1228    2.2415   -4.1464 C   0  0  0  0  0  0
    7.3236    3.7540   -4.3559 C   0  0  0  0  0  0
    7.4921    4.1624   -5.8343 C   0  0  0  0  0  0
    8.7905    3.8522   -6.4552 N   0  0  0  0  0  0
    9.0382    2.3937   -6.4970 C   0  0  2  0  0  0
    9.5399    1.8075   -5.1530 C   0  0  0  0  0  0
    9.8915    1.9612   -7.7113 C   0  0  0  0  0  0
    9.8446    4.7856   -6.2532 C   0  0  0  0  0  0
   11.1350    4.3634   -6.3835 N   0  0  0  0  0  0
   12.1191    5.2888   -6.2539 C   0  0  0  0  0  0
   11.8507    6.6341   -6.0066 C   0  0  0  0  0  0
   10.5061    7.0088   -5.8980 C   0  0  0  0  0  0
    9.5078    6.0908   -6.0351 N   0  0  0  0  0  0
   10.0822    8.4248   -5.6336 C   0  0  0  0  0  0
    8.8623    8.7390   -5.2302 N   0  0  0  0  0  0
    8.9182   10.0410   -5.1362 C   0  0  0  0  0  0
   10.1419   10.5437   -5.4376 O   0  0  0  0  0  0
   10.9144    9.4367   -5.7776 N   0  0  0  0  0  0
    7.8092   10.9991   -4.6891 C   0  0  1  0  0  0
    7.6381   10.9224   -3.1370 C   0  0  0  0  0  0
    8.6794   11.7312   -2.3502 C   0  0  0  0  0  0
    8.5143   13.2347   -2.6209 C   0  0  0  0  0  0
    8.4540   13.4530   -4.1236 C   0  0  0  0  0  0
    8.1341   12.4717   -5.0848 C   0  0  0  0  0  0
    8.2270   13.0016   -6.4034 C   0  0  0  0  0  0
    8.5156   14.3698   -6.4035 C   0  0  0  0  0  0
    8.7256   15.0145   -4.8190 S   0  0  0  0  0  0
    8.6583   15.2178   -7.4683 N   0  0  0  0  0  0
    8.0608   12.2283   -7.6311 C   0  0  0  0  0  0
    7.9306   11.6154   -8.6037 N   0  0  0  0  0  0
    6.4508   10.5519   -5.2970 C   0  0  0  0  0  0
   -3.1828   -2.9157    3.5945 O   0  0  0  0  0  0
   -9.3933   -1.9914    0.9157 H   0  0  0  0  0  0
  -10.8383   -2.9475    1.1835 H   0  0  0  0  0  0
  -10.7661   -1.2777    1.7189 H   0  0  0  0  0  0
  -13.7268   -0.4247   -1.7943 H   0  0  0  0  0  0
   -8.7372   -0.0301   -3.3738 H   0  0  0  0  0  0
   -6.4522   -0.6027   -4.0316 H   0  0  0  0  0  0
   -6.5960   -4.0841   -1.5142 H   0  0  0  0  0  0
   -8.8851   -3.5196   -0.8613 H   0  0  0  0  0  0
   -4.4480   -1.8054   -3.5887 H   0  0  0  0  0  0
   -3.8715   -4.0123   -4.6700 H   0  0  0  0  0  0
   -5.4363   -4.6259   -4.1914 H   0  0  0  0  0  0
   -5.4480   -3.8086   -6.3012 H   0  0  0  0  0  0
   -3.5603   -4.0742   -2.3605 H   0  0  0  0  0  0
   -2.4544   -4.1989   -0.5763 H   0  0  0  0  0  0
   -4.5710   -3.8129    1.1992 H   0  0  0  0  0  0
   -3.0961   -4.5996    1.6337 H   0  0  0  0  0  0
   -3.8261   -1.7287    2.0856 H   0  0  0  0  0  0
   -1.6174   -0.9905    1.9176 H   0  0  0  0  0  0
   -0.9615   -2.5897    2.3256 H   0  0  0  0  0  0
    0.6680   -1.4370    1.1094 H   0  0  0  0  0  0
   -0.5948    0.4371    0.5119 H   0  0  0  0  0  0
    0.2486    0.3165   -2.4042 H   0  0  0  0  0  0
   -0.5410    1.6830   -1.6369 H   0  0  0  0  0  0
   -1.3672    0.1468   -1.7374 H   0  0  0  0  0  0
    2.1939    1.0954   -0.4612 H   0  0  0  0  0  0
    1.6925    0.9368    1.2186 H   0  0  0  0  0  0
    1.0046    2.1978    0.2079 H   0  0  0  0  0  0
    2.2135   -0.5448   -2.2271 H   0  0  0  0  0  0
    6.1905   -2.3361   -1.2206 H   0  0  0  0  0  0
    5.8872   -3.7503   -2.2215 H   0  0  0  0  0  0
    7.9238   -2.6344   -3.0112 H   0  0  0  0  0  0
    6.6873   -2.5070   -4.2344 H   0  0  0  0  0  0
    6.1507   -0.1801   -3.3821 H   0  0  0  0  0  0
    7.4789   -0.3075   -2.2514 H   0  0  0  0  0  0
    9.0596   -0.6428   -4.2350 H   0  0  0  0  0  0
    7.7041   -0.2743   -5.3324 H   0  0  0  0  0  0
    6.4461    1.8243   -4.8939 H   0  0  0  0  0  0
    6.7102    2.0498   -3.1557 H   0  0  0  0  0  0
    6.4505    4.2685   -3.9535 H   0  0  0  0  0  0
    8.1762    4.0987   -3.7691 H   0  0  0  0  0  0
    6.7247    3.7051   -6.4608 H   0  0  0  0  0  0
    7.2419    5.2183   -5.9419 H   0  0  0  0  0  0
    8.0783    1.9195   -6.7115 H   0  0  0  0  0  0
   10.1969    0.9456   -5.2771 H   0  0  0  0  0  0
   10.1000    2.5400   -4.5705 H   0  0  0  0  0  0
    9.7485    0.9001   -7.9183 H   0  0  0  0  0  0
   10.9600    2.1011   -7.5515 H   0  0  0  0  0  0
    9.6135    2.5059   -8.6146 H   0  0  0  0  0  0
   13.1350    4.9353   -6.3540 H   0  0  0  0  0  0
   12.6536    7.3500   -5.9054 H   0  0  0  0  0  0
    6.6506   11.2883   -2.8467 H   0  0  0  0  0  0
    7.6605    9.8823   -2.8060 H   0  0  0  0  0  0
    8.5730   11.5391   -1.2819 H   0  0  0  0  0  0
    9.6863   11.4059   -2.6177 H   0  0  0  0  0  0
    7.5961   13.5946   -2.1549 H   0  0  0  0  0  0
    9.3351   13.7904   -2.1660 H   0  0  0  0  0  0
    8.5562   14.8943   -8.4198 H   0  0  0  0  0  0
    8.8729   16.1962   -7.3412 H   0  0  0  0  0  0
    6.4930   10.4147   -6.3761 H   0  0  0  0  0  0
    5.6612   11.2761   -5.0916 H   0  0  0  0  0  0
    6.1241    9.5962   -4.8840 H   0  0  0  0  0  0
   -2.7916   -2.2220    4.1309 H   0  0  0  0  0  0
    8.8244    1.4727   -3.2612 H   0  0  0  0  0  0
  1  2  1  0  0  0
  1 73  1  0  0  0
  1 74  1  0  0  0
  1 75  1  0  0  0
  2  3  2  0  0  0
  2  6  1  0  0  0
  3  4  1  0  0  0
  3  7  1  0  0  0
  4  5  1  0  0  0
  5  6  2  0  0  0
  5 76  1  0  0  0
  7  8  2  0  0  0
  7 12  1  0  0  0
  8  9  1  0  0  0
  8 77  1  0  0  0
  9 10  2  0  0  0
  9 78  1  0  0  0
 10 11  1  0  0  0
 10 13  1  0  0  0
 11 12  2  0  0  0
 11 79  1  0  0  0
 12 80  1  0  0  0
 13 14  1  0  0  0
 13 16  1  0  0  0
 13 81  1  0  0  0
 14 15  1  0  0  0
 14 82  1  0  0  0
 14 83  1  0  0  0
 15 84  1  0  0  0
 16 17  1  0  0  0
 16 85  1  0  0  0
 17 18  2  0  0  0
 17 19  1  0  0  0
 19 20  1  0  0  0
 19 23  1  0  0  0
 19 86  1  0  0  0
 20 21  1  0  0  0
 20 87  1  0  0  0
 20 88  1  0  0  0
 21 22  1  0  0  0
 21 72  1  0  0  0
 21 89  1  0  0  0
 22 23  1  0  0  0
 22 90  1  0  0  0
 22 91  1  0  0  0
 23 24  1  0  0  0
 24 25  2  0  0  0
 24 26  1  0  0  0
 26 27  1  0  0  0
 26 30  1  0  0  0
 26 92  1  0  0  0
 27 28  1  0  0  0
 27 29  1  0  0  0
 27 93  1  0  0  0
 28 94  1  0  0  0
 28 95  1  0  0  0
 28 96  1  0  0  0
 29 97  1  0  0  0
 29 98  1  0  0  0
 29 99  1  0  0  0
 30 31  1  0  0  0
 30 34  1  0  0  0
 31 32  2  0  0  0
 31100  1  0  0  0
 32 33  1  0  0  0
 32 35  1  0  0  0
 33 34  2  0  0  0
 35 36  1  0  0  0
 36 37  1  0  0  0
 36101  1  0  0  0
 36102  1  0  0  0
 37 38  1  0  0  0
 37103  1  0  0  0
 37104  1  0  0  0
 38 39  1  0  0  0
 38105  1  0  0  0
 38106  1  0  0  0
 39 40  1  0  0  0
 39107  1  0  0  0
 39108  1  0  0  0
 40 41  1  0  0  0
 40 46  1  0  0  0
 40135  1  0  0  0
 41 42  1  0  0  0
 41109  1  0  0  0
 41110  1  0  0  0
 42 43  1  0  0  0
 42111  1  0  0  0
 42112  1  0  0  0
 43 44  1  0  0  0
 43113  1  0  0  0
 43114  1  0  0  0
 44 45  1  0  0  0
 44 48  1  0  0  0
 45 46  1  0  0  0
 45 47  1  0  0  0
 45115  1  0  0  0
 46116  1  0  0  0
 46117  1  0  0  0
 47118  1  0  0  0
 47119  1  0  0  0
 47120  1  0  0  0
 48 49  2  0  0  0
 48 53  1  0  0  0
 49 50  1  0  0  0
 50 51  2  0  0  0
 50121  1  0  0  0
 51 52  1  0  0  0
 51122  1  0  0  0
 52 53  2  0  0  0
 52 54  1  0  0  0
 54 55  1  0  0  0
 54 58  2  0  0  0
 55 56  2  0  0  0
 56 57  1  0  0  0
 56 59  1  0  0  0
 57 58  1  0  0  0
 59 60  1  0  0  0
 59 71  1  0  0  0
 59 64  1  0  0  0
 60 61  1  0  0  0
 60123  1  0  0  0
 60124  1  0  0  0
 61 62  1  0  0  0
 61125  1  0  0  0
 61126  1  0  0  0
 62 63  1  0  0  0
 62127  1  0  0  0
 62128  1  0  0  0
 63 64  2  0  0  0
 63 67  1  0  0  0
 64 65  1  0  0  0
 65 66  2  0  0  0
 65 69  1  0  0  0
 66 67  1  0  0  0
 66 68  1  0  0  0
 68129  1  0  0  0
 68130  1  0  0  0
 69 70  3  0  0  0
 71131  1  0  0  0
 71132  1  0  0  0
 71133  1  0  0  0
 72134  1  0  0  0
M  CHG  1  40   1
M  END
$$$$
